* NGSPICE file created from CaravelHost.ext - technology: sky130A

* Black-box entry subcircuit for sky130_fd_sc_hd__fill_1 abstract view
.subckt sky130_fd_sc_hd__fill_1 VGND VNB VPB VPWR
.ends

* Black-box entry subcircuit for sky130_fd_sc_hd__decap_8 abstract view
.subckt sky130_fd_sc_hd__decap_8 VGND VNB VPB VPWR
.ends

* Black-box entry subcircuit for sky130_fd_sc_hd__fill_2 abstract view
.subckt sky130_fd_sc_hd__fill_2 VGND VNB VPB VPWR
.ends

* Black-box entry subcircuit for sky130_fd_sc_hd__dfxtp_1 abstract view
.subckt sky130_fd_sc_hd__dfxtp_1 CLK D VGND VNB VPB VPWR Q
.ends

* Black-box entry subcircuit for sky130_fd_sc_hd__clkbuf_1 abstract view
.subckt sky130_fd_sc_hd__clkbuf_1 A VGND VNB VPB VPWR X
.ends

* Black-box entry subcircuit for sky130_fd_sc_hd__decap_4 abstract view
.subckt sky130_fd_sc_hd__decap_4 VGND VNB VPB VPWR
.ends

* Black-box entry subcircuit for sky130_fd_sc_hd__decap_3 abstract view
.subckt sky130_fd_sc_hd__decap_3 VGND VNB VPB VPWR
.ends

* Black-box entry subcircuit for sky130_fd_sc_hd__conb_1 abstract view
.subckt sky130_fd_sc_hd__conb_1 VGND VNB VPB VPWR HI LO
.ends

* Black-box entry subcircuit for sky130_fd_sc_hd__o2111a_1 abstract view
.subckt sky130_fd_sc_hd__o2111a_1 A1 A2 B1 C1 D1 VGND VNB VPB VPWR X
.ends

* Black-box entry subcircuit for sky130_fd_sc_hd__mux2_1 abstract view
.subckt sky130_fd_sc_hd__mux2_1 A0 A1 S VGND VNB VPB VPWR X
.ends

* Black-box entry subcircuit for sky130_fd_sc_hd__clkbuf_16 abstract view
.subckt sky130_fd_sc_hd__clkbuf_16 A VGND VNB VPB VPWR X
.ends

* Black-box entry subcircuit for sky130_fd_sc_hd__inv_2 abstract view
.subckt sky130_fd_sc_hd__inv_2 A VGND VNB VPB VPWR Y
.ends

* Black-box entry subcircuit for sky130_fd_sc_hd__clkbuf_4 abstract view
.subckt sky130_fd_sc_hd__clkbuf_4 A VGND VNB VPB VPWR X
.ends

* Black-box entry subcircuit for sky130_fd_sc_hd__nor2_1 abstract view
.subckt sky130_fd_sc_hd__nor2_1 A B VGND VNB VPB VPWR Y
.ends

* Black-box entry subcircuit for sky130_fd_sc_hd__decap_6 abstract view
.subckt sky130_fd_sc_hd__decap_6 VGND VNB VPB VPWR
.ends

* Black-box entry subcircuit for sky130_fd_sc_hd__tapvpwrvgnd_1 abstract view
.subckt sky130_fd_sc_hd__tapvpwrvgnd_1 VGND VPWR
.ends

* Black-box entry subcircuit for sky130_fd_sc_hd__decap_12 abstract view
.subckt sky130_fd_sc_hd__decap_12 VGND VNB VPB VPWR
.ends

* Black-box entry subcircuit for sky130_fd_sc_hd__buf_2 abstract view
.subckt sky130_fd_sc_hd__buf_2 A VGND VNB VPB VPWR X
.ends

* Black-box entry subcircuit for sky130_fd_sc_hd__buf_4 abstract view
.subckt sky130_fd_sc_hd__buf_4 A VGND VNB VPB VPWR X
.ends

* Black-box entry subcircuit for sky130_fd_sc_hd__nand2_1 abstract view
.subckt sky130_fd_sc_hd__nand2_1 A B VGND VNB VPB VPWR Y
.ends

* Black-box entry subcircuit for sky130_fd_sc_hd__nand3_4 abstract view
.subckt sky130_fd_sc_hd__nand3_4 A B C VGND VNB VPB VPWR Y
.ends

* Black-box entry subcircuit for sky130_fd_sc_hd__a21bo_1 abstract view
.subckt sky130_fd_sc_hd__a21bo_1 A1 A2 B1_N VGND VNB VPB VPWR X
.ends

* Black-box entry subcircuit for sky130_fd_sc_hd__and2_1 abstract view
.subckt sky130_fd_sc_hd__and2_1 A B VGND VNB VPB VPWR X
.ends

* Black-box entry subcircuit for sky130_fd_sc_hd__clkbuf_2 abstract view
.subckt sky130_fd_sc_hd__clkbuf_2 A VGND VNB VPB VPWR X
.ends

* Black-box entry subcircuit for sky130_fd_sc_hd__o221a_1 abstract view
.subckt sky130_fd_sc_hd__o221a_1 A1 A2 B1 B2 C1 VGND VNB VPB VPWR X
.ends

* Black-box entry subcircuit for sky130_fd_sc_hd__o22a_1 abstract view
.subckt sky130_fd_sc_hd__o22a_1 A1 A2 B1 B2 VGND VNB VPB VPWR X
.ends

* Black-box entry subcircuit for sky130_fd_sc_hd__o211a_1 abstract view
.subckt sky130_fd_sc_hd__o211a_1 A1 A2 B1 C1 VGND VNB VPB VPWR X
.ends

* Black-box entry subcircuit for sky130_fd_sc_hd__diode_2 abstract view
.subckt sky130_fd_sc_hd__diode_2 DIODE VGND VNB VPB VPWR
.ends

* Black-box entry subcircuit for sky130_fd_sc_hd__buf_1 abstract view
.subckt sky130_fd_sc_hd__buf_1 A VGND VNB VPB VPWR X
.ends

* Black-box entry subcircuit for sky130_fd_sc_hd__mux2_2 abstract view
.subckt sky130_fd_sc_hd__mux2_2 A0 A1 S VGND VNB VPB VPWR X
.ends

* Black-box entry subcircuit for sky130_fd_sc_hd__mux4_1 abstract view
.subckt sky130_fd_sc_hd__mux4_1 A0 A1 A2 A3 S0 S1 VGND VNB VPB VPWR X
.ends

* Black-box entry subcircuit for sky130_fd_sc_hd__a21o_1 abstract view
.subckt sky130_fd_sc_hd__a21o_1 A1 A2 B1 VGND VNB VPB VPWR X
.ends

* Black-box entry subcircuit for sky130_fd_sc_hd__o32a_1 abstract view
.subckt sky130_fd_sc_hd__o32a_1 A1 A2 A3 B1 B2 VGND VNB VPB VPWR X
.ends

* Black-box entry subcircuit for sky130_fd_sc_hd__or3b_2 abstract view
.subckt sky130_fd_sc_hd__or3b_2 A B C_N VGND VNB VPB VPWR X
.ends

* Black-box entry subcircuit for sky130_fd_sc_hd__xnor2_4 abstract view
.subckt sky130_fd_sc_hd__xnor2_4 A B VGND VNB VPB VPWR Y
.ends

* Black-box entry subcircuit for sky130_fd_sc_hd__a2111o_1 abstract view
.subckt sky130_fd_sc_hd__a2111o_1 A1 A2 B1 C1 D1 VGND VNB VPB VPWR X
.ends

* Black-box entry subcircuit for sky130_fd_sc_hd__a31o_1 abstract view
.subckt sky130_fd_sc_hd__a31o_1 A1 A2 A3 B1 VGND VNB VPB VPWR X
.ends

* Black-box entry subcircuit for sky130_fd_sc_hd__a221o_1 abstract view
.subckt sky130_fd_sc_hd__a221o_1 A1 A2 B1 B2 C1 VGND VNB VPB VPWR X
.ends

* Black-box entry subcircuit for sky130_fd_sc_hd__or2_2 abstract view
.subckt sky130_fd_sc_hd__or2_2 A B VGND VNB VPB VPWR X
.ends

* Black-box entry subcircuit for sky130_fd_sc_hd__or2_1 abstract view
.subckt sky130_fd_sc_hd__or2_1 A B VGND VNB VPB VPWR X
.ends

* Black-box entry subcircuit for sky130_fd_sc_hd__o2bb2a_1 abstract view
.subckt sky130_fd_sc_hd__o2bb2a_1 A1_N A2_N B1 B2 VGND VNB VPB VPWR X
.ends

* Black-box entry subcircuit for sky130_fd_sc_hd__nand3b_1 abstract view
.subckt sky130_fd_sc_hd__nand3b_1 A_N B C VGND VNB VPB VPWR Y
.ends

* Black-box entry subcircuit for sky130_fd_sc_hd__nor2_2 abstract view
.subckt sky130_fd_sc_hd__nor2_2 A B VGND VNB VPB VPWR Y
.ends

* Black-box entry subcircuit for sky130_fd_sc_hd__mux4_2 abstract view
.subckt sky130_fd_sc_hd__mux4_2 A0 A1 A2 A3 S0 S1 VGND VNB VPB VPWR X
.ends

* Black-box entry subcircuit for sky130_fd_sc_hd__a211o_1 abstract view
.subckt sky130_fd_sc_hd__a211o_1 A1 A2 B1 C1 VGND VNB VPB VPWR X
.ends

* Black-box entry subcircuit for sky130_fd_sc_hd__and3_1 abstract view
.subckt sky130_fd_sc_hd__and3_1 A B C VGND VNB VPB VPWR X
.ends

* Black-box entry subcircuit for sky130_fd_sc_hd__or4_1 abstract view
.subckt sky130_fd_sc_hd__or4_1 A B C D VGND VNB VPB VPWR X
.ends

* Black-box entry subcircuit for sky130_fd_sc_hd__dlymetal6s2s_1 abstract view
.subckt sky130_fd_sc_hd__dlymetal6s2s_1 A VGND VNB VPB VPWR X
.ends

* Black-box entry subcircuit for sky130_fd_sc_hd__o21ai_1 abstract view
.subckt sky130_fd_sc_hd__o21ai_1 A1 A2 B1 VGND VNB VPB VPWR Y
.ends

* Black-box entry subcircuit for sky130_fd_sc_hd__or2b_1 abstract view
.subckt sky130_fd_sc_hd__or2b_1 A B_N VGND VNB VPB VPWR X
.ends

* Black-box entry subcircuit for sky130_fd_sc_hd__and4_1 abstract view
.subckt sky130_fd_sc_hd__and4_1 A B C D VGND VNB VPB VPWR X
.ends

* Black-box entry subcircuit for sky130_fd_sc_hd__and4_2 abstract view
.subckt sky130_fd_sc_hd__and4_2 A B C D VGND VNB VPB VPWR X
.ends

* Black-box entry subcircuit for sky130_fd_sc_hd__a21boi_1 abstract view
.subckt sky130_fd_sc_hd__a21boi_1 A1 A2 B1_N VGND VNB VPB VPWR Y
.ends

* Black-box entry subcircuit for sky130_fd_sc_hd__o311a_2 abstract view
.subckt sky130_fd_sc_hd__o311a_2 A1 A2 A3 B1 C1 VGND VNB VPB VPWR X
.ends

* Black-box entry subcircuit for sky130_fd_sc_hd__o311a_1 abstract view
.subckt sky130_fd_sc_hd__o311a_1 A1 A2 A3 B1 C1 VGND VNB VPB VPWR X
.ends

* Black-box entry subcircuit for sky130_fd_sc_hd__or3b_4 abstract view
.subckt sky130_fd_sc_hd__or3b_4 A B C_N VGND VNB VPB VPWR X
.ends

* Black-box entry subcircuit for sky130_fd_sc_hd__o21a_1 abstract view
.subckt sky130_fd_sc_hd__o21a_1 A1 A2 B1 VGND VNB VPB VPWR X
.ends

* Black-box entry subcircuit for sky130_fd_sc_hd__a21oi_2 abstract view
.subckt sky130_fd_sc_hd__a21oi_2 A1 A2 B1 VGND VNB VPB VPWR Y
.ends

* Black-box entry subcircuit for sky130_fd_sc_hd__dfxtp_4 abstract view
.subckt sky130_fd_sc_hd__dfxtp_4 CLK D VGND VNB VPB VPWR Q
.ends

* Black-box entry subcircuit for sky130_fd_sc_hd__xnor2_1 abstract view
.subckt sky130_fd_sc_hd__xnor2_1 A B VGND VNB VPB VPWR Y
.ends

* Black-box entry subcircuit for sky130_fd_sc_hd__or3b_1 abstract view
.subckt sky130_fd_sc_hd__or3b_1 A B C_N VGND VNB VPB VPWR X
.ends

* Black-box entry subcircuit for sky130_fd_sc_hd__xor2_1 abstract view
.subckt sky130_fd_sc_hd__xor2_1 A B VGND VNB VPB VPWR X
.ends

* Black-box entry subcircuit for sky130_fd_sc_hd__a21oi_1 abstract view
.subckt sky130_fd_sc_hd__a21oi_1 A1 A2 B1 VGND VNB VPB VPWR Y
.ends

* Black-box entry subcircuit for sky130_fd_sc_hd__nand2_2 abstract view
.subckt sky130_fd_sc_hd__nand2_2 A B VGND VNB VPB VPWR Y
.ends

* Black-box entry subcircuit for sky130_fd_sc_hd__or3_1 abstract view
.subckt sky130_fd_sc_hd__or3_1 A B C VGND VNB VPB VPWR X
.ends

* Black-box entry subcircuit for sky130_fd_sc_hd__and3b_1 abstract view
.subckt sky130_fd_sc_hd__and3b_1 A_N B C VGND VNB VPB VPWR X
.ends

* Black-box entry subcircuit for sky130_fd_sc_hd__a31o_2 abstract view
.subckt sky130_fd_sc_hd__a31o_2 A1 A2 A3 B1 VGND VNB VPB VPWR X
.ends

* Black-box entry subcircuit for sky130_fd_sc_hd__a211oi_1 abstract view
.subckt sky130_fd_sc_hd__a211oi_1 A1 A2 B1 C1 VGND VNB VPB VPWR Y
.ends

* Black-box entry subcircuit for sky130_fd_sc_hd__nand3_2 abstract view
.subckt sky130_fd_sc_hd__nand3_2 A B C VGND VNB VPB VPWR Y
.ends

* Black-box entry subcircuit for sky130_fd_sc_hd__or2_4 abstract view
.subckt sky130_fd_sc_hd__or2_4 A B VGND VNB VPB VPWR X
.ends

* Black-box entry subcircuit for sky130_fd_sc_hd__o211ai_1 abstract view
.subckt sky130_fd_sc_hd__o211ai_1 A1 A2 B1 C1 VGND VNB VPB VPWR Y
.ends

* Black-box entry subcircuit for sky130_fd_sc_hd__buf_6 abstract view
.subckt sky130_fd_sc_hd__buf_6 A VGND VNB VPB VPWR X
.ends

* Black-box entry subcircuit for sky130_fd_sc_hd__or3_4 abstract view
.subckt sky130_fd_sc_hd__or3_4 A B C VGND VNB VPB VPWR X
.ends

* Black-box entry subcircuit for sky130_fd_sc_hd__a32oi_1 abstract view
.subckt sky130_fd_sc_hd__a32oi_1 A1 A2 A3 B1 B2 VGND VNB VPB VPWR Y
.ends

* Black-box entry subcircuit for sky130_fd_sc_hd__xnor2_2 abstract view
.subckt sky130_fd_sc_hd__xnor2_2 A B VGND VNB VPB VPWR Y
.ends

* Black-box entry subcircuit for sky130_fd_sc_hd__a32o_1 abstract view
.subckt sky130_fd_sc_hd__a32o_1 A1 A2 A3 B1 B2 VGND VNB VPB VPWR X
.ends

* Black-box entry subcircuit for sky130_fd_sc_hd__clkbuf_8 abstract view
.subckt sky130_fd_sc_hd__clkbuf_8 A VGND VNB VPB VPWR X
.ends

* Black-box entry subcircuit for sky130_fd_sc_hd__dfxtp_2 abstract view
.subckt sky130_fd_sc_hd__dfxtp_2 CLK D VGND VNB VPB VPWR Q
.ends

* Black-box entry subcircuit for sky130_fd_sc_hd__nand3_1 abstract view
.subckt sky130_fd_sc_hd__nand3_1 A B C VGND VNB VPB VPWR Y
.ends

* Black-box entry subcircuit for sky130_fd_sc_hd__a21oi_4 abstract view
.subckt sky130_fd_sc_hd__a21oi_4 A1 A2 B1 VGND VNB VPB VPWR Y
.ends

* Black-box entry subcircuit for sky130_fd_sc_hd__o41a_1 abstract view
.subckt sky130_fd_sc_hd__o41a_1 A1 A2 A3 A4 B1 VGND VNB VPB VPWR X
.ends

* Black-box entry subcircuit for sky130_fd_sc_hd__or4b_1 abstract view
.subckt sky130_fd_sc_hd__or4b_1 A B C D_N VGND VNB VPB VPWR X
.ends

* Black-box entry subcircuit for sky130_fd_sc_hd__nand4_2 abstract view
.subckt sky130_fd_sc_hd__nand4_2 A B C D VGND VNB VPB VPWR Y
.ends

* Black-box entry subcircuit for sky130_fd_sc_hd__nand3b_4 abstract view
.subckt sky130_fd_sc_hd__nand3b_4 A_N B C VGND VNB VPB VPWR Y
.ends

* Black-box entry subcircuit for sky130_fd_sc_hd__nor4_4 abstract view
.subckt sky130_fd_sc_hd__nor4_4 A B C D VGND VNB VPB VPWR Y
.ends

* Black-box entry subcircuit for sky130_fd_sc_hd__inv_6 abstract view
.subckt sky130_fd_sc_hd__inv_6 A VGND VNB VPB VPWR Y
.ends

* Black-box entry subcircuit for sky130_fd_sc_hd__and4b_2 abstract view
.subckt sky130_fd_sc_hd__and4b_2 A_N B C D VGND VNB VPB VPWR X
.ends

* Black-box entry subcircuit for sky130_fd_sc_hd__and2b_1 abstract view
.subckt sky130_fd_sc_hd__and2b_1 A_N B VGND VNB VPB VPWR X
.ends

* Black-box entry subcircuit for sky130_fd_sc_hd__a22o_1 abstract view
.subckt sky130_fd_sc_hd__a22o_1 A1 A2 B1 B2 VGND VNB VPB VPWR X
.ends

* Black-box entry subcircuit for sky130_fd_sc_hd__a22oi_1 abstract view
.subckt sky130_fd_sc_hd__a22oi_1 A1 A2 B1 B2 VGND VNB VPB VPWR Y
.ends

* Black-box entry subcircuit for sky130_fd_sc_hd__clkinv_2 abstract view
.subckt sky130_fd_sc_hd__clkinv_2 A VGND VNB VPB VPWR Y
.ends

* Black-box entry subcircuit for sky130_fd_sc_hd__and2_2 abstract view
.subckt sky130_fd_sc_hd__and2_2 A B VGND VNB VPB VPWR X
.ends

* Black-box entry subcircuit for sky130_fd_sc_hd__o221a_2 abstract view
.subckt sky130_fd_sc_hd__o221a_2 A1 A2 B1 B2 C1 VGND VNB VPB VPWR X
.ends

* Black-box entry subcircuit for sky130_fd_sc_hd__or3_2 abstract view
.subckt sky130_fd_sc_hd__or3_2 A B C VGND VNB VPB VPWR X
.ends

* Black-box entry subcircuit for sky130_fd_sc_hd__xor2_2 abstract view
.subckt sky130_fd_sc_hd__xor2_2 A B VGND VNB VPB VPWR X
.ends

* Black-box entry subcircuit for sky130_fd_sc_hd__a21o_2 abstract view
.subckt sky130_fd_sc_hd__a21o_2 A1 A2 B1 VGND VNB VPB VPWR X
.ends

* Black-box entry subcircuit for sky130_fd_sc_hd__a41o_1 abstract view
.subckt sky130_fd_sc_hd__a41o_1 A1 A2 A3 A4 B1 VGND VNB VPB VPWR X
.ends

* Black-box entry subcircuit for sky130_fd_sc_hd__or4bb_4 abstract view
.subckt sky130_fd_sc_hd__or4bb_4 A B C_N D_N VGND VNB VPB VPWR X
.ends

* Black-box entry subcircuit for sky130_fd_sc_hd__buf_8 abstract view
.subckt sky130_fd_sc_hd__buf_8 A VGND VNB VPB VPWR X
.ends

* Black-box entry subcircuit for sky130_fd_sc_hd__nand3b_2 abstract view
.subckt sky130_fd_sc_hd__nand3b_2 A_N B C VGND VNB VPB VPWR Y
.ends

* Black-box entry subcircuit for sky130_fd_sc_hd__a31oi_4 abstract view
.subckt sky130_fd_sc_hd__a31oi_4 A1 A2 A3 B1 VGND VNB VPB VPWR Y
.ends

* Black-box entry subcircuit for sky130_fd_sc_hd__xor2_4 abstract view
.subckt sky130_fd_sc_hd__xor2_4 A B VGND VNB VPB VPWR X
.ends

* Black-box entry subcircuit for sky130_fd_sc_hd__nor4_2 abstract view
.subckt sky130_fd_sc_hd__nor4_2 A B C D VGND VNB VPB VPWR Y
.ends

* Black-box entry subcircuit for sky130_fd_sc_hd__and4b_1 abstract view
.subckt sky130_fd_sc_hd__and4b_1 A_N B C D VGND VNB VPB VPWR X
.ends

* Black-box entry subcircuit for sky130_fd_sc_hd__or4b_4 abstract view
.subckt sky130_fd_sc_hd__or4b_4 A B C D_N VGND VNB VPB VPWR X
.ends

* Black-box entry subcircuit for sky130_fd_sc_hd__o221ai_4 abstract view
.subckt sky130_fd_sc_hd__o221ai_4 A1 A2 B1 B2 C1 VGND VNB VPB VPWR Y
.ends

* Black-box entry subcircuit for sky130_fd_sc_hd__a311o_1 abstract view
.subckt sky130_fd_sc_hd__a311o_1 A1 A2 A3 B1 C1 VGND VNB VPB VPWR X
.ends

* Black-box entry subcircuit for sky130_fd_sc_hd__and4bb_4 abstract view
.subckt sky130_fd_sc_hd__and4bb_4 A_N B_N C D VGND VNB VPB VPWR X
.ends

* Black-box entry subcircuit for sky130_fd_sc_hd__nand2_4 abstract view
.subckt sky130_fd_sc_hd__nand2_4 A B VGND VNB VPB VPWR Y
.ends

* Black-box entry subcircuit for sky130_fd_sc_hd__nor4_1 abstract view
.subckt sky130_fd_sc_hd__nor4_1 A B C D VGND VNB VPB VPWR Y
.ends

* Black-box entry subcircuit for sky130_fd_sc_hd__a32o_2 abstract view
.subckt sky130_fd_sc_hd__a32o_2 A1 A2 A3 B1 B2 VGND VNB VPB VPWR X
.ends

* Black-box entry subcircuit for sky130_fd_sc_hd__a21bo_2 abstract view
.subckt sky130_fd_sc_hd__a21bo_2 A1 A2 B1_N VGND VNB VPB VPWR X
.ends

* Black-box entry subcircuit for sky130_fd_sc_hd__nor3_1 abstract view
.subckt sky130_fd_sc_hd__nor3_1 A B C VGND VNB VPB VPWR Y
.ends

* Black-box entry subcircuit for sky130_fd_sc_hd__and2_4 abstract view
.subckt sky130_fd_sc_hd__and2_4 A B VGND VNB VPB VPWR X
.ends

* Black-box entry subcircuit for sky130_fd_sc_hd__or4bb_1 abstract view
.subckt sky130_fd_sc_hd__or4bb_1 A B C_N D_N VGND VNB VPB VPWR X
.ends

* Black-box entry subcircuit for sky130_fd_sc_hd__o211a_2 abstract view
.subckt sky130_fd_sc_hd__o211a_2 A1 A2 B1 C1 VGND VNB VPB VPWR X
.ends

* Black-box entry subcircuit for sky130_fd_sc_hd__a211o_4 abstract view
.subckt sky130_fd_sc_hd__a211o_4 A1 A2 B1 C1 VGND VNB VPB VPWR X
.ends

* Black-box entry subcircuit for sky130_fd_sc_hd__a31o_4 abstract view
.subckt sky130_fd_sc_hd__a31o_4 A1 A2 A3 B1 VGND VNB VPB VPWR X
.ends

* Black-box entry subcircuit for sky130_fd_sc_hd__a31oi_1 abstract view
.subckt sky130_fd_sc_hd__a31oi_1 A1 A2 A3 B1 VGND VNB VPB VPWR Y
.ends

* Black-box entry subcircuit for sky130_fd_sc_hd__or4_2 abstract view
.subckt sky130_fd_sc_hd__or4_2 A B C D VGND VNB VPB VPWR X
.ends

* Black-box entry subcircuit for sky130_fd_sc_hd__o21ba_1 abstract view
.subckt sky130_fd_sc_hd__o21ba_1 A1 A2 B1_N VGND VNB VPB VPWR X
.ends

* Black-box entry subcircuit for sky130_fd_sc_hd__nor2_4 abstract view
.subckt sky130_fd_sc_hd__nor2_4 A B VGND VNB VPB VPWR Y
.ends

* Black-box entry subcircuit for sky130_fd_sc_hd__or2b_4 abstract view
.subckt sky130_fd_sc_hd__or2b_4 A B_N VGND VNB VPB VPWR X
.ends

.subckt CaravelHost caravel_irq[0] caravel_irq[1] caravel_irq[2] caravel_irq[3] caravel_uart_rx
+ caravel_uart_tx caravel_wb_ack_i caravel_wb_adr_o[0] caravel_wb_adr_o[10] caravel_wb_adr_o[11]
+ caravel_wb_adr_o[12] caravel_wb_adr_o[13] caravel_wb_adr_o[14] caravel_wb_adr_o[15]
+ caravel_wb_adr_o[16] caravel_wb_adr_o[17] caravel_wb_adr_o[18] caravel_wb_adr_o[19]
+ caravel_wb_adr_o[1] caravel_wb_adr_o[20] caravel_wb_adr_o[21] caravel_wb_adr_o[22]
+ caravel_wb_adr_o[23] caravel_wb_adr_o[24] caravel_wb_adr_o[25] caravel_wb_adr_o[26]
+ caravel_wb_adr_o[27] caravel_wb_adr_o[2] caravel_wb_adr_o[3] caravel_wb_adr_o[4]
+ caravel_wb_adr_o[5] caravel_wb_adr_o[6] caravel_wb_adr_o[7] caravel_wb_adr_o[8]
+ caravel_wb_adr_o[9] caravel_wb_cyc_o caravel_wb_data_i[0] caravel_wb_data_i[10]
+ caravel_wb_data_i[11] caravel_wb_data_i[12] caravel_wb_data_i[13] caravel_wb_data_i[14]
+ caravel_wb_data_i[15] caravel_wb_data_i[16] caravel_wb_data_i[17] caravel_wb_data_i[18]
+ caravel_wb_data_i[19] caravel_wb_data_i[1] caravel_wb_data_i[20] caravel_wb_data_i[21]
+ caravel_wb_data_i[22] caravel_wb_data_i[23] caravel_wb_data_i[24] caravel_wb_data_i[25]
+ caravel_wb_data_i[26] caravel_wb_data_i[27] caravel_wb_data_i[28] caravel_wb_data_i[29]
+ caravel_wb_data_i[2] caravel_wb_data_i[30] caravel_wb_data_i[31] caravel_wb_data_i[3]
+ caravel_wb_data_i[4] caravel_wb_data_i[5] caravel_wb_data_i[6] caravel_wb_data_i[7]
+ caravel_wb_data_i[8] caravel_wb_data_i[9] caravel_wb_data_o[0] caravel_wb_data_o[10]
+ caravel_wb_data_o[11] caravel_wb_data_o[12] caravel_wb_data_o[13] caravel_wb_data_o[14]
+ caravel_wb_data_o[15] caravel_wb_data_o[16] caravel_wb_data_o[17] caravel_wb_data_o[18]
+ caravel_wb_data_o[19] caravel_wb_data_o[1] caravel_wb_data_o[20] caravel_wb_data_o[21]
+ caravel_wb_data_o[22] caravel_wb_data_o[23] caravel_wb_data_o[24] caravel_wb_data_o[25]
+ caravel_wb_data_o[26] caravel_wb_data_o[27] caravel_wb_data_o[28] caravel_wb_data_o[29]
+ caravel_wb_data_o[2] caravel_wb_data_o[30] caravel_wb_data_o[31] caravel_wb_data_o[3]
+ caravel_wb_data_o[4] caravel_wb_data_o[5] caravel_wb_data_o[6] caravel_wb_data_o[7]
+ caravel_wb_data_o[8] caravel_wb_data_o[9] caravel_wb_error_i caravel_wb_sel_o[0]
+ caravel_wb_sel_o[1] caravel_wb_sel_o[2] caravel_wb_sel_o[3] caravel_wb_stall_i caravel_wb_stb_o
+ caravel_wb_we_o core0Index[0] core0Index[1] core0Index[2] core0Index[3] core0Index[4]
+ core0Index[5] core0Index[6] core0Index[7] core1Index[0] core1Index[1] core1Index[2]
+ core1Index[3] core1Index[4] core1Index[5] core1Index[6] core1Index[7] manufacturerID[0]
+ manufacturerID[10] manufacturerID[1] manufacturerID[2] manufacturerID[3] manufacturerID[4]
+ manufacturerID[5] manufacturerID[6] manufacturerID[7] manufacturerID[8] manufacturerID[9]
+ partID[0] partID[10] partID[11] partID[12] partID[13] partID[14] partID[15] partID[1]
+ partID[2] partID[3] partID[4] partID[5] partID[6] partID[7] partID[8] partID[9]
+ vccd1 versionID[0] versionID[1] versionID[2] versionID[3] vssd1 wb_clk_i wb_rst_i
+ wbs_ack_o wbs_adr_i[0] wbs_adr_i[10] wbs_adr_i[11] wbs_adr_i[12] wbs_adr_i[13] wbs_adr_i[14]
+ wbs_adr_i[15] wbs_adr_i[16] wbs_adr_i[17] wbs_adr_i[18] wbs_adr_i[19] wbs_adr_i[1]
+ wbs_adr_i[20] wbs_adr_i[21] wbs_adr_i[22] wbs_adr_i[23] wbs_adr_i[24] wbs_adr_i[25]
+ wbs_adr_i[26] wbs_adr_i[27] wbs_adr_i[28] wbs_adr_i[29] wbs_adr_i[2] wbs_adr_i[30]
+ wbs_adr_i[31] wbs_adr_i[3] wbs_adr_i[4] wbs_adr_i[5] wbs_adr_i[6] wbs_adr_i[7] wbs_adr_i[8]
+ wbs_adr_i[9] wbs_cyc_i wbs_data_i[0] wbs_data_i[10] wbs_data_i[11] wbs_data_i[12]
+ wbs_data_i[13] wbs_data_i[14] wbs_data_i[15] wbs_data_i[16] wbs_data_i[17] wbs_data_i[18]
+ wbs_data_i[19] wbs_data_i[1] wbs_data_i[20] wbs_data_i[21] wbs_data_i[22] wbs_data_i[23]
+ wbs_data_i[24] wbs_data_i[25] wbs_data_i[26] wbs_data_i[27] wbs_data_i[28] wbs_data_i[29]
+ wbs_data_i[2] wbs_data_i[30] wbs_data_i[31] wbs_data_i[3] wbs_data_i[4] wbs_data_i[5]
+ wbs_data_i[6] wbs_data_i[7] wbs_data_i[8] wbs_data_i[9] wbs_data_o[0] wbs_data_o[10]
+ wbs_data_o[11] wbs_data_o[12] wbs_data_o[13] wbs_data_o[14] wbs_data_o[15] wbs_data_o[16]
+ wbs_data_o[17] wbs_data_o[18] wbs_data_o[19] wbs_data_o[1] wbs_data_o[20] wbs_data_o[21]
+ wbs_data_o[22] wbs_data_o[23] wbs_data_o[24] wbs_data_o[25] wbs_data_o[26] wbs_data_o[27]
+ wbs_data_o[28] wbs_data_o[29] wbs_data_o[2] wbs_data_o[30] wbs_data_o[31] wbs_data_o[3]
+ wbs_data_o[4] wbs_data_o[5] wbs_data_o[6] wbs_data_o[7] wbs_data_o[8] wbs_data_o[9]
+ wbs_sel_i[0] wbs_sel_i[1] wbs_sel_i[2] wbs_sel_i[3] wbs_stb_i wbs_we_i
XFILLER_79_391 vssd1 vssd1 vccd1 vccd1 sky130_fd_sc_hd__fill_1
XFILLER_67_531 vssd1 vssd1 vccd1 vccd1 sky130_fd_sc_hd__decap_8
XFILLER_39_222 vssd1 vssd1 vccd1 vccd1 sky130_fd_sc_hd__fill_2
X_7963_ _7963_/CLK _7963_/D vssd1 vssd1 vccd1 vccd1 _7963_/Q sky130_fd_sc_hd__dfxtp_1
X_6914_ _6914_/A vssd1 vssd1 vccd1 vccd1 _8113_/D sky130_fd_sc_hd__clkbuf_1
XFILLER_42_409 vssd1 vssd1 vccd1 vccd1 sky130_fd_sc_hd__decap_8
XFILLER_82_589 vssd1 vssd1 vccd1 vccd1 sky130_fd_sc_hd__decap_4
XFILLER_70_729 vssd1 vssd1 vccd1 vccd1 sky130_fd_sc_hd__decap_4
X_7894_ _8520_/CLK _7894_/D vssd1 vssd1 vccd1 vccd1 _7894_/Q sky130_fd_sc_hd__dfxtp_1
XFILLER_35_472 vssd1 vssd1 vccd1 vccd1 sky130_fd_sc_hd__decap_8
XFILLER_62_291 vssd1 vssd1 vccd1 vccd1 sky130_fd_sc_hd__decap_4
XFILLER_52_29 vssd1 vssd1 vccd1 vccd1 sky130_fd_sc_hd__fill_2
XFILLER_52_18 vssd1 vssd1 vccd1 vccd1 sky130_fd_sc_hd__decap_3
X_8570__217 vssd1 vssd1 vccd1 vccd1 _8570__217/HI core0Index[4] sky130_fd_sc_hd__conb_1
X_6845_ _6838_/X _6839_/Y _6842_/Y _6843_/Y _6844_/X vssd1 vssd1 vccd1 vccd1 _6845_/X
+ sky130_fd_sc_hd__o2111a_1
X_3988_ _3831_/X _8450_/Q _3996_/S vssd1 vssd1 vccd1 vccd1 _3989_/A sky130_fd_sc_hd__mux2_1
XFILLER_10_317 vssd1 vssd1 vccd1 vccd1 sky130_fd_sc_hd__decap_3
XFILLER_23_678 vssd1 vssd1 vccd1 vccd1 sky130_fd_sc_hd__decap_4
X_8515_ _8515_/CLK _8515_/D vssd1 vssd1 vccd1 vccd1 _8515_/Q sky130_fd_sc_hd__dfxtp_1
X_5727_ _7920_/Q _5593_/X _5731_/S vssd1 vssd1 vccd1 vccd1 _5728_/A sky130_fd_sc_hd__mux2_1
X_8446_ _8446_/CLK _8446_/D vssd1 vssd1 vccd1 vccd1 _8446_/Q sky130_fd_sc_hd__dfxtp_1
XFILLER_108_227 vssd1 vssd1 vccd1 vccd1 sky130_fd_sc_hd__decap_4
X_5658_ _5658_/A vssd1 vssd1 vccd1 vccd1 _7951_/D sky130_fd_sc_hd__clkbuf_1
X_8377_ _8377_/CLK _8377_/D vssd1 vssd1 vccd1 vccd1 _8377_/Q sky130_fd_sc_hd__dfxtp_1
Xclkbuf_0__3456_ _7083_/X vssd1 vssd1 vccd1 vccd1 clkbuf_0__3456_/X sky130_fd_sc_hd__clkbuf_16
X_5589_ _5589_/A vssd1 vssd1 vccd1 vccd1 _7986_/D sky130_fd_sc_hd__clkbuf_1
X_4609_ _4609_/A vssd1 vssd1 vccd1 vccd1 _8195_/D sky130_fd_sc_hd__clkbuf_1
X_6947__414 _6948__415/A vssd1 vssd1 vccd1 vccd1 _8138_/CLK sky130_fd_sc_hd__inv_2
Xclkbuf_1_0_0__3773_ clkbuf_0__3773_/X vssd1 vssd1 vccd1 vccd1 _7657__35/A sky130_fd_sc_hd__clkbuf_4
X_7328_ _7336_/A _7328_/B vssd1 vssd1 vccd1 vccd1 _8350_/D sky130_fd_sc_hd__nor2_1
XFILLER_89_155 vssd1 vssd1 vccd1 vccd1 sky130_fd_sc_hd__fill_2
X_7259_ _8352_/Q vssd1 vssd1 vccd1 vccd1 _7259_/Y sky130_fd_sc_hd__inv_2
XFILLER_77_48 vssd1 vssd1 vccd1 vccd1 sky130_fd_sc_hd__fill_1
XFILLER_58_531 vssd1 vssd1 vccd1 vccd1 sky130_fd_sc_hd__fill_1
XFILLER_100_661 vssd1 vssd1 vccd1 vccd1 sky130_fd_sc_hd__decap_4
XFILLER_92_309 vssd1 vssd1 vccd1 vccd1 sky130_fd_sc_hd__fill_1
XFILLER_58_597 vssd1 vssd1 vccd1 vccd1 sky130_fd_sc_hd__decap_6
XFILLER_45_225 vssd1 vssd1 vccd1 vccd1 sky130_fd_sc_hd__decap_6
XTAP_1800 vssd1 vccd1 sky130_fd_sc_hd__tapvpwrvgnd_1
XFILLER_93_69 vssd1 vssd1 vccd1 vccd1 sky130_fd_sc_hd__decap_8
XFILLER_73_578 vssd1 vssd1 vccd1 vccd1 sky130_fd_sc_hd__fill_1
XFILLER_45_258 vssd1 vssd1 vccd1 vccd1 sky130_fd_sc_hd__decap_4
XTAP_1822 vssd1 vccd1 sky130_fd_sc_hd__tapvpwrvgnd_1
XTAP_1811 vssd1 vccd1 sky130_fd_sc_hd__tapvpwrvgnd_1
XFILLER_61_729 vssd1 vssd1 vccd1 vccd1 sky130_fd_sc_hd__decap_4
XFILLER_14_601 vssd1 vssd1 vccd1 vccd1 sky130_fd_sc_hd__decap_8
XFILLER_26_52 vssd1 vssd1 vccd1 vccd1 sky130_fd_sc_hd__fill_1
XFILLER_26_74 vssd1 vssd1 vccd1 vccd1 sky130_fd_sc_hd__decap_8
XFILLER_60_239 vssd1 vssd1 vccd1 vccd1 sky130_fd_sc_hd__decap_6
XFILLER_14_645 vssd1 vssd1 vccd1 vccd1 sky130_fd_sc_hd__decap_6
XFILLER_41_442 vssd1 vssd1 vccd1 vccd1 sky130_fd_sc_hd__decap_6
XFILLER_14_667 vssd1 vssd1 vccd1 vccd1 sky130_fd_sc_hd__decap_4
XFILLER_9_137 vssd1 vssd1 vccd1 vccd1 sky130_fd_sc_hd__decap_12
XFILLER_41_486 vssd1 vssd1 vccd1 vccd1 sky130_fd_sc_hd__decap_4
XFILLER_5_343 vssd1 vssd1 vccd1 vccd1 sky130_fd_sc_hd__fill_2
X_6887__383 _6887__383/A vssd1 vssd1 vccd1 vccd1 _8097_/CLK sky130_fd_sc_hd__inv_2
XFILLER_49_520 vssd1 vssd1 vccd1 vccd1 sky130_fd_sc_hd__decap_3
XFILLER_95_169 vssd1 vssd1 vccd1 vccd1 sky130_fd_sc_hd__decap_12
XFILLER_83_309 vssd1 vssd1 vccd1 vccd1 sky130_fd_sc_hd__decap_4
XFILLER_76_372 vssd1 vssd1 vccd1 vccd1 sky130_fd_sc_hd__decap_4
XFILLER_64_523 vssd1 vssd1 vccd1 vccd1 sky130_fd_sc_hd__decap_8
XFILLER_36_225 vssd1 vssd1 vccd1 vccd1 sky130_fd_sc_hd__fill_1
XFILLER_64_567 vssd1 vssd1 vccd1 vccd1 sky130_fd_sc_hd__decap_4
XFILLER_91_375 vssd1 vssd1 vccd1 vccd1 sky130_fd_sc_hd__decap_4
X_4960_ _4975_/S vssd1 vssd1 vccd1 vccd1 _4969_/S sky130_fd_sc_hd__buf_2
XFILLER_51_228 vssd1 vssd1 vccd1 vccd1 sky130_fd_sc_hd__decap_4
XFILLER_17_461 vssd1 vssd1 vccd1 vccd1 sky130_fd_sc_hd__decap_12
X_4891_ _4901_/S vssd1 vssd1 vccd1 vccd1 _4909_/S sky130_fd_sc_hd__clkbuf_4
X_3911_ _8488_/Q vssd1 vssd1 vccd1 vccd1 _3911_/X sky130_fd_sc_hd__buf_4
XFILLER_20_604 vssd1 vssd1 vccd1 vccd1 sky130_fd_sc_hd__fill_1
X_3842_ _5345_/A _8114_/Q vssd1 vssd1 vccd1 vccd1 _5034_/D sky130_fd_sc_hd__nand2_1
X_5512_ _8040_/Q _4292_/A _5516_/S vssd1 vssd1 vccd1 vccd1 _5513_/A sky130_fd_sc_hd__mux2_1
X_8300_ _8300_/CLK _8300_/D vssd1 vssd1 vccd1 vccd1 _8300_/Q sky130_fd_sc_hd__dfxtp_1
XFILLER_20_659 vssd1 vssd1 vccd1 vccd1 sky130_fd_sc_hd__decap_12
Xclkbuf_1_1_0__3273_ clkbuf_0__3273_/X vssd1 vssd1 vccd1 vccd1 _6643__303/A sky130_fd_sc_hd__clkbuf_4
X_6751__347 _6754__350/A vssd1 vssd1 vccd1 vccd1 _8057_/CLK sky130_fd_sc_hd__inv_2
X_6492_ _6000_/A _7888_/Q _6498_/S vssd1 vssd1 vccd1 vccd1 _6493_/A sky130_fd_sc_hd__mux2_1
XFILLER_106_709 vssd1 vssd1 vccd1 vccd1 sky130_fd_sc_hd__decap_4
Xclkbuf_0__3310_ _6731_/X vssd1 vssd1 vccd1 vccd1 clkbuf_0__3310_/X sky130_fd_sc_hd__clkbuf_16
X_5443_ _5443_/A vssd1 vssd1 vccd1 vccd1 _8074_/D sky130_fd_sc_hd__clkbuf_1
X_8231_ _8231_/CLK _8231_/D vssd1 vssd1 vccd1 vccd1 _8231_/Q sky130_fd_sc_hd__dfxtp_1
XFILLER_105_219 vssd1 vssd1 vccd1 vccd1 sky130_fd_sc_hd__decap_4
X_7487__20 _7487__20/A vssd1 vssd1 vccd1 vccd1 _8452_/CLK sky130_fd_sc_hd__inv_2
X_5374_ _8109_/Q vssd1 vssd1 vccd1 vccd1 _5566_/A sky130_fd_sc_hd__buf_2
X_8162_ _8162_/CLK _8162_/D vssd1 vssd1 vccd1 vccd1 _8162_/Q sky130_fd_sc_hd__dfxtp_1
XFILLER_113_230 vssd1 vssd1 vccd1 vccd1 sky130_fd_sc_hd__decap_6
X_4325_ _4325_/A vssd1 vssd1 vccd1 vccd1 _8307_/D sky130_fd_sc_hd__clkbuf_1
XFILLER_101_414 vssd1 vssd1 vccd1 vccd1 sky130_fd_sc_hd__decap_4
XFILLER_86_114 vssd1 vssd1 vccd1 vccd1 sky130_fd_sc_hd__fill_1
X_8093_ _8093_/CLK _8093_/D vssd1 vssd1 vccd1 vccd1 _8093_/Q sky130_fd_sc_hd__dfxtp_1
XFILLER_101_447 vssd1 vssd1 vccd1 vccd1 sky130_fd_sc_hd__fill_1
XFILLER_86_136 vssd1 vssd1 vccd1 vccd1 sky130_fd_sc_hd__decap_4
XFILLER_86_125 vssd1 vssd1 vccd1 vccd1 sky130_fd_sc_hd__decap_6
X_4256_ _4256_/A _4301_/B _4256_/C vssd1 vssd1 vccd1 vccd1 _5787_/B sky130_fd_sc_hd__nand3_4
X_4187_ _8491_/Q vssd1 vssd1 vccd1 vccd1 _4187_/X sky130_fd_sc_hd__buf_2
XFILLER_74_309 vssd1 vssd1 vccd1 vccd1 sky130_fd_sc_hd__decap_4
XFILLER_67_383 vssd1 vssd1 vccd1 vccd1 sky130_fd_sc_hd__decap_8
XFILLER_27_225 vssd1 vssd1 vccd1 vccd1 sky130_fd_sc_hd__decap_6
XFILLER_82_353 vssd1 vssd1 vccd1 vccd1 sky130_fd_sc_hd__decap_4
X_7946_ _7946_/CLK _7946_/D vssd1 vssd1 vccd1 vccd1 _7946_/Q sky130_fd_sc_hd__dfxtp_1
XFILLER_70_504 vssd1 vssd1 vccd1 vccd1 sky130_fd_sc_hd__fill_2
XTAP_1118 vssd1 vccd1 sky130_fd_sc_hd__tapvpwrvgnd_1
XTAP_1129 vssd1 vccd1 sky130_fd_sc_hd__tapvpwrvgnd_1
XTAP_1107 vssd1 vccd1 sky130_fd_sc_hd__tapvpwrvgnd_1
XFILLER_43_729 vssd1 vssd1 vccd1 vccd1 sky130_fd_sc_hd__decap_4
X_7877_ _8345_/CLK _7877_/D vssd1 vssd1 vccd1 vccd1 _7877_/Q sky130_fd_sc_hd__dfxtp_1
X_6828_ _7576_/A _7576_/B _8544_/Q vssd1 vssd1 vccd1 vccd1 _6828_/X sky130_fd_sc_hd__a21bo_1
XFILLER_11_604 vssd1 vssd1 vccd1 vccd1 sky130_fd_sc_hd__decap_3
XFILLER_11_615 vssd1 vssd1 vccd1 vccd1 sky130_fd_sc_hd__fill_1
XFILLER_10_125 vssd1 vssd1 vccd1 vccd1 sky130_fd_sc_hd__decap_4
XFILLER_11_626 vssd1 vssd1 vccd1 vccd1 sky130_fd_sc_hd__decap_8
XFILLER_109_503 vssd1 vssd1 vccd1 vccd1 sky130_fd_sc_hd__fill_1
XFILLER_10_136 vssd1 vssd1 vccd1 vccd1 sky130_fd_sc_hd__decap_4
XFILLER_6_107 vssd1 vssd1 vccd1 vccd1 sky130_fd_sc_hd__decap_6
XFILLER_11_659 vssd1 vssd1 vccd1 vccd1 sky130_fd_sc_hd__decap_6
X_6759_ _6759_/A vssd1 vssd1 vccd1 vccd1 _8062_/D sky130_fd_sc_hd__clkbuf_1
X_8429_ _8429_/CLK _8429_/D vssd1 vssd1 vccd1 vccd1 _8429_/Q sky130_fd_sc_hd__dfxtp_1