* NGSPICE file created from Configuration.ext - technology: sky130A

* Black-box entry subcircuit for sky130_fd_sc_hd__decap_12 abstract view
.subckt sky130_fd_sc_hd__decap_12 VGND VNB VPB VPWR
.ends

* Black-box entry subcircuit for sky130_fd_sc_hd__decap_8 abstract view
.subckt sky130_fd_sc_hd__decap_8 VGND VNB VPB VPWR
.ends

* Black-box entry subcircuit for sky130_fd_sc_hd__conb_1 abstract view
.subckt sky130_fd_sc_hd__conb_1 VGND VNB VPB VPWR HI LO
.ends

* Black-box entry subcircuit for sky130_fd_sc_hd__fill_1 abstract view
.subckt sky130_fd_sc_hd__fill_1 VGND VNB VPB VPWR
.ends

* Black-box entry subcircuit for sky130_fd_sc_hd__decap_4 abstract view
.subckt sky130_fd_sc_hd__decap_4 VGND VNB VPB VPWR
.ends

* Black-box entry subcircuit for sky130_fd_sc_hd__tapvpwrvgnd_1 abstract view
.subckt sky130_fd_sc_hd__tapvpwrvgnd_1 VGND VPWR
.ends

* Black-box entry subcircuit for sky130_fd_sc_hd__fill_2 abstract view
.subckt sky130_fd_sc_hd__fill_2 VGND VNB VPB VPWR
.ends

* Black-box entry subcircuit for sky130_fd_sc_hd__decap_3 abstract view
.subckt sky130_fd_sc_hd__decap_3 VGND VNB VPB VPWR
.ends

.subckt Configuration clk core0Index[0] core0Index[1] core0Index[2] core0Index[3]
+ core0Index[4] core0Index[5] core0Index[6] core0Index[7] core1Index[0] core1Index[1]
+ core1Index[2] core1Index[3] core1Index[4] core1Index[5] core1Index[6] core1Index[7]
+ manufacturerID[0] manufacturerID[10] manufacturerID[1] manufacturerID[2] manufacturerID[3]
+ manufacturerID[4] manufacturerID[5] manufacturerID[6] manufacturerID[7] manufacturerID[8]
+ manufacturerID[9] partID[0] partID[10] partID[11] partID[12] partID[13] partID[14]
+ partID[15] partID[1] partID[2] partID[3] partID[4] partID[5] partID[6] partID[7]
+ partID[8] partID[9] vccd1 versionID[0] versionID[1] versionID[2] versionID[3] vssd1
XFILLER_26_41 vssd1 vssd1 vccd1 vccd1 sky130_fd_sc_hd__decap_12
XFILLER_12_65 vssd1 vssd1 vccd1 vccd1 sky130_fd_sc_hd__decap_8
X_36__27 vssd1 vssd1 vccd1 vccd1 _36__27/HI versionID[3] sky130_fd_sc_hd__conb_1
XFILLER_0_57 vssd1 vssd1 vccd1 vccd1 sky130_fd_sc_hd__decap_8
XFILLER_9_55 vssd1 vssd1 vccd1 vccd1 sky130_fd_sc_hd__fill_1
XFILLER_9_77 vssd1 vssd1 vccd1 vccd1 sky130_fd_sc_hd__decap_4
XFILLER_34_41 vssd1 vssd1 vccd1 vccd1 sky130_fd_sc_hd__decap_12
XFILLER_18_53 vssd1 vssd1 vccd1 vccd1 sky130_fd_sc_hd__decap_12
XFILLER_20_65 vssd1 vssd1 vccd1 vccd1 sky130_fd_sc_hd__decap_8
XFILLER_13_3 vssd1 vssd1 vccd1 vccd1 sky130_fd_sc_hd__decap_12
X_20__11 vssd1 vssd1 vccd1 vccd1 _20__11/HI manufacturerID[5] sky130_fd_sc_hd__conb_1
XTAP_112 vssd1 vccd1 sky130_fd_sc_hd__tapvpwrvgnd_1
XTAP_101 vssd1 vccd1 sky130_fd_sc_hd__tapvpwrvgnd_1
XFILLER_3_57 vssd1 vssd1 vccd1 vccd1 sky130_fd_sc_hd__decap_8
XFILLER_26_53 vssd1 vssd1 vccd1 vccd1 sky130_fd_sc_hd__decap_12
XFILLER_12_77 vssd1 vssd1 vccd1 vccd1 sky130_fd_sc_hd__decap_4
XFILLER_34_53 vssd1 vssd1 vccd1 vccd1 sky130_fd_sc_hd__decap_12
XFILLER_18_65 vssd1 vssd1 vccd1 vccd1 sky130_fd_sc_hd__decap_8
XFILLER_20_77 vssd1 vssd1 vccd1 vccd1 sky130_fd_sc_hd__decap_4
XFILLER_15_55 vssd1 vssd1 vccd1 vccd1 sky130_fd_sc_hd__fill_1
XFILLER_31_65 vssd1 vssd1 vccd1 vccd1 sky130_fd_sc_hd__fill_2
XFILLER_15_77 vssd1 vssd1 vccd1 vccd1 sky130_fd_sc_hd__decap_4
XTAP_102 vssd1 vccd1 sky130_fd_sc_hd__tapvpwrvgnd_1
XFILLER_26_65 vssd1 vssd1 vccd1 vccd1 sky130_fd_sc_hd__decap_8
XFILLER_3_3 vssd1 vssd1 vccd1 vccd1 sky130_fd_sc_hd__decap_12
XFILLER_0_15 vssd1 vssd1 vccd1 vccd1 sky130_fd_sc_hd__decap_12
XFILLER_23_55 vssd1 vssd1 vccd1 vccd1 sky130_fd_sc_hd__fill_1
XFILLER_23_77 vssd1 vssd1 vccd1 vccd1 sky130_fd_sc_hd__decap_4
XFILLER_36_3 vssd1 vssd1 vccd1 vccd1 sky130_fd_sc_hd__decap_12
XFILLER_9_57 vssd1 vssd1 vccd1 vccd1 sky130_fd_sc_hd__decap_12
X_27__18 vssd1 vssd1 vccd1 vccd1 _27__18/HI partID[3] sky130_fd_sc_hd__conb_1
XFILLER_34_65 vssd1 vssd1 vccd1 vccd1 sky130_fd_sc_hd__fill_2
X_41__32 vssd1 vssd1 vccd1 vccd1 _41__32/HI core0Index[4] sky130_fd_sc_hd__conb_1
XFILLER_18_77 vssd1 vssd1 vccd1 vccd1 sky130_fd_sc_hd__decap_4
X_05__43 vssd1 vssd1 vccd1 vccd1 partID[10] _05__43/LO sky130_fd_sc_hd__conb_1
XFILLER_31_77 vssd1 vssd1 vccd1 vccd1 sky130_fd_sc_hd__decap_4
XFILLER_31_55 vssd1 vssd1 vccd1 vccd1 sky130_fd_sc_hd__fill_1
X_13__4 vssd1 vssd1 vccd1 vccd1 _13__4/HI core1Index[6] sky130_fd_sc_hd__conb_1
XTAP_103 vssd1 vccd1 sky130_fd_sc_hd__tapvpwrvgnd_1
XFILLER_26_77 vssd1 vssd1 vccd1 vccd1 sky130_fd_sc_hd__decap_4
XFILLER_3_15 vssd1 vssd1 vccd1 vccd1 sky130_fd_sc_hd__decap_12
XFILLER_0_27 vssd1 vssd1 vccd1 vccd1 sky130_fd_sc_hd__fill_1
XFILLER_29_3 vssd1 vssd1 vccd1 vccd1 sky130_fd_sc_hd__decap_12
XFILLER_9_69 vssd1 vssd1 vccd1 vccd1 sky130_fd_sc_hd__decap_4
XFILLER_34_77 vssd1 vssd1 vccd1 vccd1 sky130_fd_sc_hd__decap_4
XFILLER_1_70 vssd1 vssd1 vccd1 vccd1 sky130_fd_sc_hd__decap_4
XFILLER_29_77 vssd1 vssd1 vccd1 vccd1 sky130_fd_sc_hd__decap_4
XFILLER_29_55 vssd1 vssd1 vccd1 vccd1 sky130_fd_sc_hd__fill_1
XFILLER_6_15 vssd1 vssd1 vccd1 vccd1 sky130_fd_sc_hd__decap_12
XFILLER_15_57 vssd1 vssd1 vccd1 vccd1 sky130_fd_sc_hd__decap_12
XTAP_104 vssd1 vccd1 sky130_fd_sc_hd__tapvpwrvgnd_1
XFILLER_11_3 vssd1 vssd1 vccd1 vccd1 sky130_fd_sc_hd__decap_12
XFILLER_3_27 vssd1 vssd1 vccd1 vccd1 sky130_fd_sc_hd__decap_12
XFILLER_23_57 vssd1 vssd1 vccd1 vccd1 sky130_fd_sc_hd__decap_12
XFILLER_9_15 vssd1 vssd1 vccd1 vccd1 sky130_fd_sc_hd__decap_12
X_32__23 vssd1 vssd1 vccd1 vccd1 _32__23/HI partID[13] sky130_fd_sc_hd__conb_1
XFILLER_6_27 vssd1 vssd1 vccd1 vccd1 sky130_fd_sc_hd__fill_1
XFILLER_31_57 vssd1 vssd1 vccd1 vccd1 sky130_fd_sc_hd__decap_8
XFILLER_15_69 vssd1 vssd1 vccd1 vccd1 sky130_fd_sc_hd__decap_4
XTAP_105 vssd1 vccd1 sky130_fd_sc_hd__tapvpwrvgnd_1
XFILLER_3_39 vssd1 vssd1 vccd1 vccd1 sky130_fd_sc_hd__decap_12
XFILLER_12_15 vssd1 vssd1 vccd1 vccd1 sky130_fd_sc_hd__decap_12
XFILLER_23_69 vssd1 vssd1 vccd1 vccd1 sky130_fd_sc_hd__decap_4
XFILLER_0_29 vssd1 vssd1 vccd1 vccd1 sky130_fd_sc_hd__decap_12
XFILLER_9_27 vssd1 vssd1 vccd1 vccd1 sky130_fd_sc_hd__decap_12
XFILLER_1_3 vssd1 vssd1 vccd1 vccd1 sky130_fd_sc_hd__decap_12
XFILLER_34_3 vssd1 vssd1 vccd1 vccd1 sky130_fd_sc_hd__decap_12
XFILLER_29_57 vssd1 vssd1 vccd1 vccd1 sky130_fd_sc_hd__decap_12
XFILLER_20_15 vssd1 vssd1 vccd1 vccd1 sky130_fd_sc_hd__decap_12
XFILLER_15_15 vssd1 vssd1 vccd1 vccd1 sky130_fd_sc_hd__decap_12
XTAP_106 vssd1 vccd1 sky130_fd_sc_hd__tapvpwrvgnd_1
XPHY_0 vssd1 vssd1 vccd1 vccd1 sky130_fd_sc_hd__decap_3
XFILLER_12_27 vssd1 vssd1 vccd1 vccd1 sky130_fd_sc_hd__fill_1
XFILLER_23_15 vssd1 vssd1 vccd1 vccd1 sky130_fd_sc_hd__decap_12
XFILLER_9_39 vssd1 vssd1 vccd1 vccd1 sky130_fd_sc_hd__decap_12
X_16__7 vssd1 vssd1 vccd1 vccd1 _16__7/HI manufacturerID[1] sky130_fd_sc_hd__conb_1
XFILLER_18_15 vssd1 vssd1 vccd1 vccd1 sky130_fd_sc_hd__decap_12
X_23__14 vssd1 vssd1 vccd1 vccd1 _23__14/HI manufacturerID[8] sky130_fd_sc_hd__conb_1
XFILLER_27_3 vssd1 vssd1 vccd1 vccd1 sky130_fd_sc_hd__decap_12
XFILLER_29_69 vssd1 vssd1 vccd1 vccd1 sky130_fd_sc_hd__decap_4
XFILLER_1_51 vssd1 vssd1 vccd1 vccd1 sky130_fd_sc_hd__decap_4
XFILLER_20_27 vssd1 vssd1 vccd1 vccd1 sky130_fd_sc_hd__fill_1
XFILLER_6_29 vssd1 vssd1 vccd1 vccd1 sky130_fd_sc_hd__decap_12
XFILLER_15_27 vssd1 vssd1 vccd1 vccd1 sky130_fd_sc_hd__decap_12
XFILLER_31_15 vssd1 vssd1 vccd1 vccd1 sky130_fd_sc_hd__decap_12
XTAP_107 vssd1 vccd1 sky130_fd_sc_hd__tapvpwrvgnd_1
XPHY_1 vssd1 vssd1 vccd1 vccd1 sky130_fd_sc_hd__decap_3
XFILLER_26_15 vssd1 vssd1 vccd1 vccd1 sky130_fd_sc_hd__decap_12
XFILLER_4_73 vssd1 vssd1 vccd1 vccd1 sky130_fd_sc_hd__fill_1
X_29__20 vssd1 vssd1 vccd1 vccd1 _29__20/HI partID[7] sky130_fd_sc_hd__conb_1
XFILLER_23_27 vssd1 vssd1 vccd1 vccd1 sky130_fd_sc_hd__decap_12
XFILLER_34_15 vssd1 vssd1 vccd1 vccd1 sky130_fd_sc_hd__decap_12
XFILLER_18_27 vssd1 vssd1 vccd1 vccd1 sky130_fd_sc_hd__fill_1
XFILLER_29_15 vssd1 vssd1 vccd1 vccd1 sky130_fd_sc_hd__decap_12
XFILLER_31_27 vssd1 vssd1 vccd1 vccd1 sky130_fd_sc_hd__decap_12
XFILLER_15_39 vssd1 vssd1 vccd1 vccd1 sky130_fd_sc_hd__decap_12
XTAP_108 vssd1 vccd1 sky130_fd_sc_hd__tapvpwrvgnd_1
XPHY_2 vssd1 vssd1 vccd1 vccd1 sky130_fd_sc_hd__decap_3
XFILLER_7_51 vssd1 vssd1 vccd1 vccd1 sky130_fd_sc_hd__decap_4
XFILLER_7_73 vssd1 vssd1 vccd1 vccd1 sky130_fd_sc_hd__fill_1
XFILLER_26_27 vssd1 vssd1 vccd1 vccd1 sky130_fd_sc_hd__fill_1
XFILLER_12_29 vssd1 vssd1 vccd1 vccd1 sky130_fd_sc_hd__decap_12
XFILLER_4_41 vssd1 vssd1 vccd1 vccd1 sky130_fd_sc_hd__decap_12
X_44__35 vssd1 vssd1 vccd1 vccd1 _44__35/HI core0Index[7] sky130_fd_sc_hd__conb_1
XFILLER_23_39 vssd1 vssd1 vccd1 vccd1 sky130_fd_sc_hd__decap_12
XFILLER_34_27 vssd1 vssd1 vccd1 vccd1 sky130_fd_sc_hd__fill_1
X_08__46 vssd1 vssd1 vccd1 vccd1 partID[15] _08__46/LO sky130_fd_sc_hd__conb_1
XFILLER_20_29 vssd1 vssd1 vccd1 vccd1 sky130_fd_sc_hd__decap_12
XFILLER_29_27 vssd1 vssd1 vccd1 vccd1 sky130_fd_sc_hd__decap_12
XFILLER_10_73 vssd1 vssd1 vccd1 vccd1 sky130_fd_sc_hd__fill_1
XFILLER_35_70 vssd1 vssd1 vccd1 vccd1 sky130_fd_sc_hd__decap_4
XFILLER_32_3 vssd1 vssd1 vccd1 vccd1 sky130_fd_sc_hd__decap_12
XFILLER_31_39 vssd1 vssd1 vccd1 vccd1 sky130_fd_sc_hd__decap_12
XTAP_109 vssd1 vccd1 sky130_fd_sc_hd__tapvpwrvgnd_1
XPHY_3 vssd1 vssd1 vccd1 vccd1 sky130_fd_sc_hd__decap_3
XFILLER_4_53 vssd1 vssd1 vccd1 vccd1 sky130_fd_sc_hd__decap_12
XFILLER_13_51 vssd1 vssd1 vccd1 vccd1 sky130_fd_sc_hd__decap_4
XFILLER_13_73 vssd1 vssd1 vccd1 vccd1 sky130_fd_sc_hd__fill_1
XFILLER_18_29 vssd1 vssd1 vccd1 vccd1 sky130_fd_sc_hd__decap_12
XFILLER_1_65 vssd1 vssd1 vccd1 vccd1 sky130_fd_sc_hd__fill_2
XFILLER_29_39 vssd1 vssd1 vccd1 vccd1 sky130_fd_sc_hd__decap_12
XFILLER_10_41 vssd1 vssd1 vccd1 vccd1 sky130_fd_sc_hd__decap_12
XFILLER_25_3 vssd1 vssd1 vccd1 vccd1 sky130_fd_sc_hd__decap_12
XFILLER_21_51 vssd1 vssd1 vccd1 vccd1 sky130_fd_sc_hd__decap_4
XFILLER_21_73 vssd1 vssd1 vccd1 vccd1 sky130_fd_sc_hd__fill_1
XPHY_4 vssd1 vssd1 vccd1 vccd1 sky130_fd_sc_hd__decap_3
XFILLER_26_29 vssd1 vssd1 vccd1 vccd1 sky130_fd_sc_hd__decap_12
XFILLER_16_73 vssd1 vssd1 vccd1 vccd1 sky130_fd_sc_hd__fill_1
XFILLER_4_65 vssd1 vssd1 vccd1 vccd1 sky130_fd_sc_hd__decap_8
X_35__26 vssd1 vssd1 vccd1 vccd1 _35__26/HI versionID[2] sky130_fd_sc_hd__conb_1
XFILLER_34_29 vssd1 vssd1 vccd1 vccd1 sky130_fd_sc_hd__decap_12
XFILLER_1_77 vssd1 vssd1 vccd1 vccd1 sky130_fd_sc_hd__decap_4
XFILLER_1_55 vssd1 vssd1 vccd1 vccd1 sky130_fd_sc_hd__fill_1
XFILLER_24_73 vssd1 vssd1 vccd1 vccd1 sky130_fd_sc_hd__fill_1
XFILLER_10_53 vssd1 vssd1 vccd1 vccd1 sky130_fd_sc_hd__decap_12
XFILLER_19_51 vssd1 vssd1 vccd1 vccd1 sky130_fd_sc_hd__decap_4
XFILLER_19_73 vssd1 vssd1 vccd1 vccd1 sky130_fd_sc_hd__fill_1
XFILLER_18_3 vssd1 vssd1 vccd1 vccd1 sky130_fd_sc_hd__decap_12
XPHY_5 vssd1 vssd1 vccd1 vccd1 sky130_fd_sc_hd__decap_3
XFILLER_32_73 vssd1 vssd1 vccd1 vccd1 sky130_fd_sc_hd__fill_1
XFILLER_16_41 vssd1 vssd1 vccd1 vccd1 sky130_fd_sc_hd__decap_12
XFILLER_27_51 vssd1 vssd1 vccd1 vccd1 sky130_fd_sc_hd__decap_4
XFILLER_27_73 vssd1 vssd1 vccd1 vccd1 sky130_fd_sc_hd__fill_1
XFILLER_4_77 vssd1 vssd1 vccd1 vccd1 sky130_fd_sc_hd__decap_4
XFILLER_24_41 vssd1 vssd1 vccd1 vccd1 sky130_fd_sc_hd__decap_12
XFILLER_35_51 vssd1 vssd1 vccd1 vccd1 sky130_fd_sc_hd__decap_4
XFILLER_10_65 vssd1 vssd1 vccd1 vccd1 sky130_fd_sc_hd__decap_8
XPHY_6 vssd1 vssd1 vccd1 vccd1 sky130_fd_sc_hd__decap_3
XFILLER_7_55 vssd1 vssd1 vccd1 vccd1 sky130_fd_sc_hd__fill_1
XFILLER_7_77 vssd1 vssd1 vccd1 vccd1 sky130_fd_sc_hd__decap_4
XFILLER_30_3 vssd1 vssd1 vccd1 vccd1 sky130_fd_sc_hd__decap_12
XFILLER_32_41 vssd1 vssd1 vccd1 vccd1 sky130_fd_sc_hd__decap_12
XFILLER_16_53 vssd1 vssd1 vccd1 vccd1 sky130_fd_sc_hd__decap_12
XFILLER_8_3 vssd1 vssd1 vccd1 vccd1 sky130_fd_sc_hd__decap_12
X_11__2 vssd1 vssd1 vccd1 vccd1 _11__2/HI core1Index[4] sky130_fd_sc_hd__conb_1
X_26__17 vssd1 vssd1 vccd1 vccd1 _26__17/HI partID[1] sky130_fd_sc_hd__conb_1
X_40__31 vssd1 vssd1 vccd1 vccd1 _40__31/HI core0Index[3] sky130_fd_sc_hd__conb_1
XFILLER_24_53 vssd1 vssd1 vccd1 vccd1 sky130_fd_sc_hd__decap_12
XFILLER_1_57 vssd1 vssd1 vccd1 vccd1 sky130_fd_sc_hd__decap_8
XFILLER_10_77 vssd1 vssd1 vccd1 vccd1 sky130_fd_sc_hd__decap_4
XTAP_90 vssd1 vccd1 sky130_fd_sc_hd__tapvpwrvgnd_1
XFILLER_35_63 vssd1 vssd1 vccd1 vccd1 sky130_fd_sc_hd__decap_4
X_04__42 vssd1 vssd1 vccd1 vccd1 partID[8] _04__42/LO sky130_fd_sc_hd__conb_1
XPHY_7 vssd1 vssd1 vccd1 vccd1 sky130_fd_sc_hd__decap_3
XFILLER_23_3 vssd1 vssd1 vccd1 vccd1 sky130_fd_sc_hd__decap_12
XFILLER_32_53 vssd1 vssd1 vccd1 vccd1 sky130_fd_sc_hd__decap_12
XFILLER_16_65 vssd1 vssd1 vccd1 vccd1 sky130_fd_sc_hd__decap_8
XFILLER_13_55 vssd1 vssd1 vccd1 vccd1 sky130_fd_sc_hd__fill_1
XFILLER_13_77 vssd1 vssd1 vccd1 vccd1 sky130_fd_sc_hd__decap_4
XFILLER_24_65 vssd1 vssd1 vccd1 vccd1 sky130_fd_sc_hd__decap_8
XTAP_80 vssd1 vccd1 sky130_fd_sc_hd__tapvpwrvgnd_1
XTAP_91 vssd1 vccd1 sky130_fd_sc_hd__tapvpwrvgnd_1
XFILLER_21_55 vssd1 vssd1 vccd1 vccd1 sky130_fd_sc_hd__fill_1
XFILLER_21_77 vssd1 vssd1 vccd1 vccd1 sky130_fd_sc_hd__decap_4
XPHY_8 vssd1 vssd1 vccd1 vccd1 sky130_fd_sc_hd__decap_3
XFILLER_7_57 vssd1 vssd1 vccd1 vccd1 sky130_fd_sc_hd__decap_12
XFILLER_16_3 vssd1 vssd1 vccd1 vccd1 sky130_fd_sc_hd__decap_12
XFILLER_16_77 vssd1 vssd1 vccd1 vccd1 sky130_fd_sc_hd__decap_4
XFILLER_32_65 vssd1 vssd1 vccd1 vccd1 sky130_fd_sc_hd__decap_8
X_31__22 vssd1 vssd1 vccd1 vccd1 _31__22/HI partID[12] sky130_fd_sc_hd__conb_1
XFILLER_1_15 vssd1 vssd1 vccd1 vccd1 sky130_fd_sc_hd__decap_12
XFILLER_24_77 vssd1 vssd1 vccd1 vccd1 sky130_fd_sc_hd__decap_4
XTAP_81 vssd1 vccd1 sky130_fd_sc_hd__tapvpwrvgnd_1
XTAP_92 vssd1 vccd1 sky130_fd_sc_hd__tapvpwrvgnd_1
XFILLER_19_55 vssd1 vssd1 vccd1 vccd1 sky130_fd_sc_hd__fill_1
XFILLER_19_77 vssd1 vssd1 vccd1 vccd1 sky130_fd_sc_hd__decap_4
XPHY_9 vssd1 vssd1 vccd1 vccd1 sky130_fd_sc_hd__decap_3
XFILLER_7_69 vssd1 vssd1 vccd1 vccd1 sky130_fd_sc_hd__decap_4
XFILLER_32_77 vssd1 vssd1 vccd1 vccd1 sky130_fd_sc_hd__decap_4
XFILLER_27_55 vssd1 vssd1 vccd1 vccd1 sky130_fd_sc_hd__fill_1
XFILLER_27_77 vssd1 vssd1 vccd1 vccd1 sky130_fd_sc_hd__decap_4
XFILLER_4_15 vssd1 vssd1 vccd1 vccd1 sky130_fd_sc_hd__decap_12
XFILLER_13_57 vssd1 vssd1 vccd1 vccd1 sky130_fd_sc_hd__decap_12
XFILLER_6_3 vssd1 vssd1 vccd1 vccd1 sky130_fd_sc_hd__decap_12
XFILLER_1_27 vssd1 vssd1 vccd1 vccd1 sky130_fd_sc_hd__decap_12
XTAP_82 vssd1 vccd1 sky130_fd_sc_hd__tapvpwrvgnd_1
XTAP_93 vssd1 vccd1 sky130_fd_sc_hd__tapvpwrvgnd_1
XFILLER_35_77 vssd1 vssd1 vccd1 vccd1 sky130_fd_sc_hd__decap_4
XFILLER_35_55 vssd1 vssd1 vccd1 vccd1 sky130_fd_sc_hd__fill_1
XFILLER_2_70 vssd1 vssd1 vccd1 vccd1 sky130_fd_sc_hd__decap_4
XFILLER_21_57 vssd1 vssd1 vccd1 vccd1 sky130_fd_sc_hd__decap_12
XFILLER_7_15 vssd1 vssd1 vccd1 vccd1 sky130_fd_sc_hd__decap_12
X_14__5 vssd1 vssd1 vccd1 vccd1 _14__5/HI core1Index[7] sky130_fd_sc_hd__conb_1
XFILLER_21_3 vssd1 vssd1 vccd1 vccd1 sky130_fd_sc_hd__decap_12
XFILLER_4_27 vssd1 vssd1 vccd1 vccd1 sky130_fd_sc_hd__fill_1
X_38__29 vssd1 vssd1 vccd1 vccd1 _38__29/HI core0Index[1] sky130_fd_sc_hd__conb_1
XFILLER_13_69 vssd1 vssd1 vccd1 vccd1 sky130_fd_sc_hd__decap_4
XFILLER_1_39 vssd1 vssd1 vccd1 vccd1 sky130_fd_sc_hd__decap_12
X_22__13 vssd1 vssd1 vccd1 vccd1 _22__13/HI manufacturerID[7] sky130_fd_sc_hd__conb_1
XTAP_83 vssd1 vccd1 sky130_fd_sc_hd__tapvpwrvgnd_1
XFILLER_10_15 vssd1 vssd1 vccd1 vccd1 sky130_fd_sc_hd__decap_12
XFILLER_19_57 vssd1 vssd1 vccd1 vccd1 sky130_fd_sc_hd__decap_12
XTAP_94 vssd1 vccd1 sky130_fd_sc_hd__tapvpwrvgnd_1
XFILLER_7_27 vssd1 vssd1 vccd1 vccd1 sky130_fd_sc_hd__decap_12
XFILLER_21_69 vssd1 vssd1 vccd1 vccd1 sky130_fd_sc_hd__decap_4
XFILLER_14_3 vssd1 vssd1 vccd1 vccd1 sky130_fd_sc_hd__decap_12
XFILLER_27_57 vssd1 vssd1 vccd1 vccd1 sky130_fd_sc_hd__decap_12
XFILLER_13_15 vssd1 vssd1 vccd1 vccd1 sky130_fd_sc_hd__decap_12
XTAP_84 vssd1 vccd1 sky130_fd_sc_hd__tapvpwrvgnd_1
XFILLER_10_27 vssd1 vssd1 vccd1 vccd1 sky130_fd_sc_hd__fill_1
XTAP_95 vssd1 vccd1 sky130_fd_sc_hd__tapvpwrvgnd_1
XFILLER_19_69 vssd1 vssd1 vccd1 vccd1 sky130_fd_sc_hd__decap_4
XFILLER_35_57 vssd1 vssd1 vccd1 vccd1 sky130_fd_sc_hd__decap_3
XFILLER_21_15 vssd1 vssd1 vccd1 vccd1 sky130_fd_sc_hd__decap_12
X_01__39 vssd1 vssd1 vccd1 vccd1 partID[2] _01__39/LO sky130_fd_sc_hd__conb_1
XFILLER_7_39 vssd1 vssd1 vccd1 vccd1 sky130_fd_sc_hd__decap_12
XFILLER_16_15 vssd1 vssd1 vccd1 vccd1 sky130_fd_sc_hd__decap_12
XFILLER_4_29 vssd1 vssd1 vccd1 vccd1 sky130_fd_sc_hd__decap_12
XFILLER_27_69 vssd1 vssd1 vccd1 vccd1 sky130_fd_sc_hd__decap_4
X_43__34 vssd1 vssd1 vccd1 vccd1 _43__34/HI core0Index[6] sky130_fd_sc_hd__conb_1
XFILLER_13_27 vssd1 vssd1 vccd1 vccd1 sky130_fd_sc_hd__decap_12
XFILLER_24_15 vssd1 vssd1 vccd1 vccd1 sky130_fd_sc_hd__decap_12
X_07__45 vssd1 vssd1 vccd1 vccd1 partID[14] _07__45/LO sky130_fd_sc_hd__conb_1
XTAP_74 vssd1 vccd1 sky130_fd_sc_hd__tapvpwrvgnd_1
XTAP_85 vssd1 vccd1 sky130_fd_sc_hd__tapvpwrvgnd_1
XTAP_96 vssd1 vccd1 sky130_fd_sc_hd__tapvpwrvgnd_1
XFILLER_4_3 vssd1 vssd1 vccd1 vccd1 sky130_fd_sc_hd__decap_12
XFILLER_19_15 vssd1 vssd1 vccd1 vccd1 sky130_fd_sc_hd__decap_12
XFILLER_21_27 vssd1 vssd1 vccd1 vccd1 sky130_fd_sc_hd__decap_12
XFILLER_32_15 vssd1 vssd1 vccd1 vccd1 sky130_fd_sc_hd__decap_12
XFILLER_16_27 vssd1 vssd1 vccd1 vccd1 sky130_fd_sc_hd__fill_1
XFILLER_27_15 vssd1 vssd1 vccd1 vccd1 sky130_fd_sc_hd__decap_12
XFILLER_13_39 vssd1 vssd1 vccd1 vccd1 sky130_fd_sc_hd__decap_12
X_19__10 vssd1 vssd1 vccd1 vccd1 _19__10/HI manufacturerID[4] sky130_fd_sc_hd__conb_1
XFILLER_5_73 vssd1 vssd1 vccd1 vccd1 sky130_fd_sc_hd__fill_1
XFILLER_5_51 vssd1 vssd1 vccd1 vccd1 sky130_fd_sc_hd__decap_4
XFILLER_24_27 vssd1 vssd1 vccd1 vccd1 sky130_fd_sc_hd__fill_1
XTAP_75 vssd1 vccd1 sky130_fd_sc_hd__tapvpwrvgnd_1
XTAP_86 vssd1 vccd1 sky130_fd_sc_hd__tapvpwrvgnd_1
XTAP_97 vssd1 vccd1 sky130_fd_sc_hd__tapvpwrvgnd_1
XFILLER_35_15 vssd1 vssd1 vccd1 vccd1 sky130_fd_sc_hd__decap_12
XFILLER_10_29 vssd1 vssd1 vccd1 vccd1 sky130_fd_sc_hd__decap_12
X_17__8 vssd1 vssd1 vccd1 vccd1 _17__8/HI manufacturerID[2] sky130_fd_sc_hd__conb_1
XFILLER_19_27 vssd1 vssd1 vccd1 vccd1 sky130_fd_sc_hd__decap_12
XPHY_70 vssd1 vssd1 vccd1 vccd1 sky130_fd_sc_hd__decap_3
XFILLER_2_41 vssd1 vssd1 vccd1 vccd1 sky130_fd_sc_hd__decap_12
XFILLER_21_39 vssd1 vssd1 vccd1 vccd1 sky130_fd_sc_hd__decap_12
XFILLER_32_27 vssd1 vssd1 vccd1 vccd1 sky130_fd_sc_hd__fill_1
XFILLER_8_73 vssd1 vssd1 vccd1 vccd1 sky130_fd_sc_hd__fill_1
XFILLER_27_27 vssd1 vssd1 vccd1 vccd1 sky130_fd_sc_hd__decap_12
XFILLER_12_3 vssd1 vssd1 vccd1 vccd1 sky130_fd_sc_hd__decap_12
X_34__25 vssd1 vssd1 vccd1 vccd1 _34__25/HI versionID[1] sky130_fd_sc_hd__conb_1
XTAP_76 vssd1 vccd1 sky130_fd_sc_hd__tapvpwrvgnd_1
XTAP_87 vssd1 vccd1 sky130_fd_sc_hd__tapvpwrvgnd_1
XTAP_98 vssd1 vccd1 sky130_fd_sc_hd__tapvpwrvgnd_1
XFILLER_35_27 vssd1 vssd1 vccd1 vccd1 sky130_fd_sc_hd__decap_12
XFILLER_19_39 vssd1 vssd1 vccd1 vccd1 sky130_fd_sc_hd__decap_12
XPHY_71 vssd1 vssd1 vccd1 vccd1 sky130_fd_sc_hd__decap_3
XPHY_60 vssd1 vssd1 vccd1 vccd1 sky130_fd_sc_hd__decap_3
XFILLER_2_53 vssd1 vssd1 vccd1 vccd1 sky130_fd_sc_hd__decap_12
XFILLER_11_51 vssd1 vssd1 vccd1 vccd1 sky130_fd_sc_hd__decap_4
XFILLER_11_73 vssd1 vssd1 vccd1 vccd1 sky130_fd_sc_hd__fill_1
XFILLER_36_70 vssd1 vssd1 vccd1 vccd1 sky130_fd_sc_hd__decap_4
XFILLER_16_29 vssd1 vssd1 vccd1 vccd1 sky130_fd_sc_hd__decap_12
XFILLER_8_41 vssd1 vssd1 vccd1 vccd1 sky130_fd_sc_hd__decap_12
XFILLER_27_39 vssd1 vssd1 vccd1 vccd1 sky130_fd_sc_hd__decap_12
XFILLER_24_29 vssd1 vssd1 vccd1 vccd1 sky130_fd_sc_hd__decap_12
XFILLER_14_73 vssd1 vssd1 vccd1 vccd1 sky130_fd_sc_hd__fill_1
XFILLER_35_39 vssd1 vssd1 vccd1 vccd1 sky130_fd_sc_hd__decap_12
XTAP_77 vssd1 vccd1 sky130_fd_sc_hd__tapvpwrvgnd_1
XTAP_88 vssd1 vccd1 sky130_fd_sc_hd__tapvpwrvgnd_1
XTAP_99 vssd1 vccd1 sky130_fd_sc_hd__tapvpwrvgnd_1
XPHY_72 vssd1 vssd1 vccd1 vccd1 sky130_fd_sc_hd__decap_3
XPHY_61 vssd1 vssd1 vccd1 vccd1 sky130_fd_sc_hd__decap_3
XPHY_50 vssd1 vssd1 vccd1 vccd1 sky130_fd_sc_hd__decap_3
XFILLER_2_65 vssd1 vssd1 vccd1 vccd1 sky130_fd_sc_hd__fill_2
XFILLER_2_3 vssd1 vssd1 vccd1 vccd1 sky130_fd_sc_hd__decap_12
XFILLER_35_3 vssd1 vssd1 vccd1 vccd1 sky130_fd_sc_hd__decap_12
XFILLER_32_29 vssd1 vssd1 vccd1 vccd1 sky130_fd_sc_hd__decap_12
XFILLER_22_73 vssd1 vssd1 vccd1 vccd1 sky130_fd_sc_hd__fill_1
XFILLER_8_53 vssd1 vssd1 vccd1 vccd1 sky130_fd_sc_hd__decap_12
XFILLER_17_51 vssd1 vssd1 vccd1 vccd1 sky130_fd_sc_hd__decap_4
XFILLER_17_73 vssd1 vssd1 vccd1 vccd1 sky130_fd_sc_hd__fill_1
X_25__16 vssd1 vssd1 vccd1 vccd1 _25__16/HI manufacturerID[10] sky130_fd_sc_hd__conb_1
XFILLER_30_73 vssd1 vssd1 vccd1 vccd1 sky130_fd_sc_hd__fill_1
XFILLER_14_41 vssd1 vssd1 vccd1 vccd1 sky130_fd_sc_hd__decap_12
XTAP_78 vssd1 vccd1 sky130_fd_sc_hd__tapvpwrvgnd_1
XTAP_89 vssd1 vccd1 sky130_fd_sc_hd__tapvpwrvgnd_1
XPHY_73 vssd1 vssd1 vccd1 vccd1 sky130_fd_sc_hd__decap_3
XPHY_62 vssd1 vssd1 vccd1 vccd1 sky130_fd_sc_hd__decap_3
X_03__41 vssd1 vssd1 vccd1 vccd1 partID[6] _03__41/LO sky130_fd_sc_hd__conb_1
XFILLER_2_77 vssd1 vssd1 vccd1 vccd1 sky130_fd_sc_hd__decap_4
XPHY_40 vssd1 vssd1 vccd1 vccd1 sky130_fd_sc_hd__decap_3
XFILLER_25_51 vssd1 vssd1 vccd1 vccd1 sky130_fd_sc_hd__decap_4
XFILLER_25_73 vssd1 vssd1 vccd1 vccd1 sky130_fd_sc_hd__fill_1
XPHY_51 vssd1 vssd1 vccd1 vccd1 sky130_fd_sc_hd__decap_3
XFILLER_28_3 vssd1 vssd1 vccd1 vccd1 sky130_fd_sc_hd__decap_12
XFILLER_22_41 vssd1 vssd1 vccd1 vccd1 sky130_fd_sc_hd__decap_12
XFILLER_8_65 vssd1 vssd1 vccd1 vccd1 sky130_fd_sc_hd__decap_8
XFILLER_33_73 vssd1 vssd1 vccd1 vccd1 sky130_fd_sc_hd__fill_1
XFILLER_33_51 vssd1 vssd1 vccd1 vccd1 sky130_fd_sc_hd__decap_4
XFILLER_28_73 vssd1 vssd1 vccd1 vccd1 sky130_fd_sc_hd__fill_1
XFILLER_5_77 vssd1 vssd1 vccd1 vccd1 sky130_fd_sc_hd__decap_4
XFILLER_5_55 vssd1 vssd1 vccd1 vccd1 sky130_fd_sc_hd__fill_1
XFILLER_10_3 vssd1 vssd1 vccd1 vccd1 sky130_fd_sc_hd__decap_12
XFILLER_30_41 vssd1 vssd1 vccd1 vccd1 sky130_fd_sc_hd__decap_12
XFILLER_14_53 vssd1 vssd1 vccd1 vccd1 sky130_fd_sc_hd__decap_12
XTAP_79 vssd1 vccd1 sky130_fd_sc_hd__tapvpwrvgnd_1
XPHY_63 vssd1 vssd1 vccd1 vccd1 sky130_fd_sc_hd__decap_3
XPHY_30 vssd1 vssd1 vccd1 vccd1 sky130_fd_sc_hd__decap_3
XPHY_41 vssd1 vssd1 vccd1 vccd1 sky130_fd_sc_hd__decap_3
XPHY_52 vssd1 vssd1 vccd1 vccd1 sky130_fd_sc_hd__decap_3
XFILLER_22_53 vssd1 vssd1 vccd1 vccd1 sky130_fd_sc_hd__decap_12
XFILLER_8_77 vssd1 vssd1 vccd1 vccd1 sky130_fd_sc_hd__decap_4
X_46__37 vssd1 vssd1 vccd1 vccd1 _46__37/HI core1Index[2] sky130_fd_sc_hd__conb_1
XFILLER_28_41 vssd1 vssd1 vccd1 vccd1 sky130_fd_sc_hd__decap_12
XFILLER_14_65 vssd1 vssd1 vccd1 vccd1 sky130_fd_sc_hd__decap_8
X_30__21 vssd1 vssd1 vccd1 vccd1 _30__21/HI partID[9] sky130_fd_sc_hd__conb_1
XFILLER_30_53 vssd1 vssd1 vccd1 vccd1 sky130_fd_sc_hd__decap_12
XPHY_64 vssd1 vssd1 vccd1 vccd1 sky130_fd_sc_hd__decap_3
XPHY_20 vssd1 vssd1 vccd1 vccd1 sky130_fd_sc_hd__decap_3
XPHY_31 vssd1 vssd1 vccd1 vccd1 sky130_fd_sc_hd__decap_3
XPHY_42 vssd1 vssd1 vccd1 vccd1 sky130_fd_sc_hd__decap_3
XPHY_53 vssd1 vssd1 vccd1 vccd1 sky130_fd_sc_hd__decap_3
XFILLER_11_55 vssd1 vssd1 vccd1 vccd1 sky130_fd_sc_hd__fill_1
XFILLER_11_77 vssd1 vssd1 vccd1 vccd1 sky130_fd_sc_hd__decap_4
XFILLER_36_63 vssd1 vssd1 vccd1 vccd1 sky130_fd_sc_hd__decap_4
XFILLER_36_41 vssd1 vssd1 vccd1 vccd1 sky130_fd_sc_hd__decap_12
XFILLER_0_3 vssd1 vssd1 vccd1 vccd1 sky130_fd_sc_hd__decap_12
XFILLER_22_65 vssd1 vssd1 vccd1 vccd1 sky130_fd_sc_hd__decap_8
XFILLER_33_3 vssd1 vssd1 vccd1 vccd1 sky130_fd_sc_hd__decap_12
XFILLER_28_53 vssd1 vssd1 vccd1 vccd1 sky130_fd_sc_hd__decap_12
XFILLER_5_57 vssd1 vssd1 vccd1 vccd1 sky130_fd_sc_hd__decap_12
XFILLER_30_65 vssd1 vssd1 vccd1 vccd1 sky130_fd_sc_hd__decap_8
X_12__3 vssd1 vssd1 vccd1 vccd1 _12__3/HI core1Index[5] sky130_fd_sc_hd__conb_1
XFILLER_14_77 vssd1 vssd1 vccd1 vccd1 sky130_fd_sc_hd__decap_4
XPHY_65 vssd1 vssd1 vccd1 vccd1 sky130_fd_sc_hd__decap_3
XPHY_10 vssd1 vssd1 vccd1 vccd1 sky130_fd_sc_hd__decap_3
XPHY_21 vssd1 vssd1 vccd1 vccd1 sky130_fd_sc_hd__decap_3
XPHY_32 vssd1 vssd1 vccd1 vccd1 sky130_fd_sc_hd__decap_3
XPHY_43 vssd1 vssd1 vccd1 vccd1 sky130_fd_sc_hd__decap_3
XPHY_54 vssd1 vssd1 vccd1 vccd1 sky130_fd_sc_hd__decap_3
XFILLER_36_53 vssd1 vssd1 vccd1 vccd1 sky130_fd_sc_hd__decap_3
XFILLER_22_77 vssd1 vssd1 vccd1 vccd1 sky130_fd_sc_hd__decap_4
XFILLER_26_3 vssd1 vssd1 vccd1 vccd1 sky130_fd_sc_hd__decap_12
XFILLER_17_55 vssd1 vssd1 vccd1 vccd1 sky130_fd_sc_hd__fill_1
XFILLER_17_77 vssd1 vssd1 vccd1 vccd1 sky130_fd_sc_hd__decap_4
X_37__28 vssd1 vssd1 vccd1 vccd1 _37__28/HI core0Index[0] sky130_fd_sc_hd__conb_1
XFILLER_28_65 vssd1 vssd1 vccd1 vccd1 sky130_fd_sc_hd__decap_8
XFILLER_5_69 vssd1 vssd1 vccd1 vccd1 sky130_fd_sc_hd__decap_4
XFILLER_30_77 vssd1 vssd1 vccd1 vccd1 sky130_fd_sc_hd__decap_4
X_21__12 vssd1 vssd1 vccd1 vccd1 _21__12/HI manufacturerID[6] sky130_fd_sc_hd__conb_1
XPHY_66 vssd1 vssd1 vccd1 vccd1 sky130_fd_sc_hd__decap_3
XPHY_11 vssd1 vssd1 vccd1 vccd1 sky130_fd_sc_hd__decap_3
XPHY_22 vssd1 vssd1 vccd1 vccd1 sky130_fd_sc_hd__decap_3
XPHY_33 vssd1 vssd1 vccd1 vccd1 sky130_fd_sc_hd__decap_3
XPHY_44 vssd1 vssd1 vccd1 vccd1 sky130_fd_sc_hd__decap_3
XFILLER_25_55 vssd1 vssd1 vccd1 vccd1 sky130_fd_sc_hd__fill_1
XFILLER_25_77 vssd1 vssd1 vccd1 vccd1 sky130_fd_sc_hd__decap_4
XPHY_55 vssd1 vssd1 vccd1 vccd1 sky130_fd_sc_hd__decap_3
XFILLER_2_15 vssd1 vssd1 vccd1 vccd1 sky130_fd_sc_hd__decap_12
XFILLER_11_57 vssd1 vssd1 vccd1 vccd1 sky130_fd_sc_hd__decap_12
XFILLER_19_3 vssd1 vssd1 vccd1 vccd1 sky130_fd_sc_hd__decap_12
XFILLER_33_77 vssd1 vssd1 vccd1 vccd1 sky130_fd_sc_hd__decap_4
XFILLER_33_55 vssd1 vssd1 vccd1 vccd1 sky130_fd_sc_hd__fill_1
XFILLER_0_70 vssd1 vssd1 vccd1 vccd1 sky130_fd_sc_hd__decap_4
XFILLER_28_77 vssd1 vssd1 vccd1 vccd1 sky130_fd_sc_hd__decap_4
XFILLER_5_15 vssd1 vssd1 vccd1 vccd1 sky130_fd_sc_hd__decap_12
XPHY_12 vssd1 vssd1 vccd1 vccd1 sky130_fd_sc_hd__decap_3
XPHY_67 vssd1 vssd1 vccd1 vccd1 sky130_fd_sc_hd__decap_3
XPHY_56 vssd1 vssd1 vccd1 vccd1 sky130_fd_sc_hd__decap_3
XFILLER_2_27 vssd1 vssd1 vccd1 vccd1 sky130_fd_sc_hd__fill_1
XPHY_23 vssd1 vssd1 vccd1 vccd1 sky130_fd_sc_hd__decap_3
XPHY_34 vssd1 vssd1 vccd1 vccd1 sky130_fd_sc_hd__decap_3
XPHY_45 vssd1 vssd1 vccd1 vccd1 sky130_fd_sc_hd__decap_3
XFILLER_36_77 vssd1 vssd1 vccd1 vccd1 sky130_fd_sc_hd__decap_4
XFILLER_11_69 vssd1 vssd1 vccd1 vccd1 sky130_fd_sc_hd__decap_4
X_00__38 vssd1 vssd1 vccd1 vccd1 partID[0] _00__38/LO sky130_fd_sc_hd__conb_1
XFILLER_3_70 vssd1 vssd1 vccd1 vccd1 sky130_fd_sc_hd__decap_4
XFILLER_8_15 vssd1 vssd1 vccd1 vccd1 sky130_fd_sc_hd__decap_12
XFILLER_17_57 vssd1 vssd1 vccd1 vccd1 sky130_fd_sc_hd__decap_12
XFILLER_31_3 vssd1 vssd1 vccd1 vccd1 sky130_fd_sc_hd__decap_12
X_28__19 vssd1 vssd1 vccd1 vccd1 _28__19/HI partID[5] sky130_fd_sc_hd__conb_1
X_42__33 vssd1 vssd1 vccd1 vccd1 _42__33/HI core0Index[5] sky130_fd_sc_hd__conb_1
XFILLER_5_27 vssd1 vssd1 vccd1 vccd1 sky130_fd_sc_hd__decap_12
X_06__44 vssd1 vssd1 vccd1 vccd1 partID[11] _06__44/LO sky130_fd_sc_hd__conb_1
XPHY_68 vssd1 vssd1 vccd1 vccd1 sky130_fd_sc_hd__decap_3
XPHY_57 vssd1 vssd1 vccd1 vccd1 sky130_fd_sc_hd__decap_3
XPHY_13 vssd1 vssd1 vccd1 vccd1 sky130_fd_sc_hd__decap_3
XFILLER_9_3 vssd1 vssd1 vccd1 vccd1 sky130_fd_sc_hd__decap_12
XPHY_24 vssd1 vssd1 vccd1 vccd1 sky130_fd_sc_hd__decap_3
XPHY_35 vssd1 vssd1 vccd1 vccd1 sky130_fd_sc_hd__decap_3
XPHY_46 vssd1 vssd1 vccd1 vccd1 sky130_fd_sc_hd__decap_3
XFILLER_25_57 vssd1 vssd1 vccd1 vccd1 sky130_fd_sc_hd__decap_12
XFILLER_11_15 vssd1 vssd1 vccd1 vccd1 sky130_fd_sc_hd__decap_12
XFILLER_8_27 vssd1 vssd1 vccd1 vccd1 sky130_fd_sc_hd__fill_1
XFILLER_33_57 vssd1 vssd1 vccd1 vccd1 sky130_fd_sc_hd__decap_12
X_15__6 vssd1 vssd1 vccd1 vccd1 _15__6/HI manufacturerID[0] sky130_fd_sc_hd__conb_1
XFILLER_17_69 vssd1 vssd1 vccd1 vccd1 sky130_fd_sc_hd__decap_4
XFILLER_24_3 vssd1 vssd1 vccd1 vccd1 sky130_fd_sc_hd__decap_12
XFILLER_5_39 vssd1 vssd1 vccd1 vccd1 sky130_fd_sc_hd__decap_12
XFILLER_14_15 vssd1 vssd1 vccd1 vccd1 sky130_fd_sc_hd__decap_12
XPHY_69 vssd1 vssd1 vccd1 vccd1 sky130_fd_sc_hd__decap_3
XPHY_58 vssd1 vssd1 vccd1 vccd1 sky130_fd_sc_hd__decap_3
XPHY_14 vssd1 vssd1 vccd1 vccd1 sky130_fd_sc_hd__decap_3
XPHY_25 vssd1 vssd1 vccd1 vccd1 sky130_fd_sc_hd__decap_3
XPHY_36 vssd1 vssd1 vccd1 vccd1 sky130_fd_sc_hd__decap_3
XPHY_47 vssd1 vssd1 vccd1 vccd1 sky130_fd_sc_hd__decap_3
XFILLER_25_69 vssd1 vssd1 vccd1 vccd1 sky130_fd_sc_hd__decap_4
XFILLER_2_29 vssd1 vssd1 vccd1 vccd1 sky130_fd_sc_hd__decap_12
XFILLER_11_27 vssd1 vssd1 vccd1 vccd1 sky130_fd_sc_hd__decap_12
XFILLER_36_57 vssd1 vssd1 vccd1 vccd1 sky130_fd_sc_hd__decap_3
XFILLER_22_15 vssd1 vssd1 vccd1 vccd1 sky130_fd_sc_hd__decap_12
XFILLER_33_69 vssd1 vssd1 vccd1 vccd1 sky130_fd_sc_hd__decap_4
XFILLER_17_15 vssd1 vssd1 vccd1 vccd1 sky130_fd_sc_hd__decap_12
XFILLER_17_3 vssd1 vssd1 vccd1 vccd1 sky130_fd_sc_hd__decap_12
X_33__24 vssd1 vssd1 vccd1 vccd1 _33__24/HI versionID[0] sky130_fd_sc_hd__conb_1
XFILLER_30_15 vssd1 vssd1 vccd1 vccd1 sky130_fd_sc_hd__decap_12
XFILLER_14_27 vssd1 vssd1 vccd1 vccd1 sky130_fd_sc_hd__fill_1
XPHY_59 vssd1 vssd1 vccd1 vccd1 sky130_fd_sc_hd__decap_3
XPHY_15 vssd1 vssd1 vccd1 vccd1 sky130_fd_sc_hd__decap_3
XPHY_26 vssd1 vssd1 vccd1 vccd1 sky130_fd_sc_hd__decap_3
XPHY_37 vssd1 vssd1 vccd1 vccd1 sky130_fd_sc_hd__decap_3
XPHY_48 vssd1 vssd1 vccd1 vccd1 sky130_fd_sc_hd__decap_3
XFILLER_25_15 vssd1 vssd1 vccd1 vccd1 sky130_fd_sc_hd__decap_12
XFILLER_11_39 vssd1 vssd1 vccd1 vccd1 sky130_fd_sc_hd__decap_12
XFILLER_3_51 vssd1 vssd1 vccd1 vccd1 sky130_fd_sc_hd__decap_4
XFILLER_22_27 vssd1 vssd1 vccd1 vccd1 sky130_fd_sc_hd__fill_1
XFILLER_8_29 vssd1 vssd1 vccd1 vccd1 sky130_fd_sc_hd__decap_12
XFILLER_33_15 vssd1 vssd1 vccd1 vccd1 sky130_fd_sc_hd__decap_12
X_39__30 vssd1 vssd1 vccd1 vccd1 _39__30/HI core0Index[2] sky130_fd_sc_hd__conb_1
XFILLER_17_27 vssd1 vssd1 vccd1 vccd1 sky130_fd_sc_hd__decap_12
XFILLER_0_41 vssd1 vssd1 vccd1 vccd1 sky130_fd_sc_hd__decap_12
XFILLER_28_15 vssd1 vssd1 vccd1 vccd1 sky130_fd_sc_hd__decap_12
XFILLER_30_27 vssd1 vssd1 vccd1 vccd1 sky130_fd_sc_hd__fill_1
XFILLER_6_73 vssd1 vssd1 vccd1 vccd1 sky130_fd_sc_hd__fill_1
XPHY_16 vssd1 vssd1 vccd1 vccd1 sky130_fd_sc_hd__decap_3
XPHY_27 vssd1 vssd1 vccd1 vccd1 sky130_fd_sc_hd__decap_3
XPHY_38 vssd1 vssd1 vccd1 vccd1 sky130_fd_sc_hd__decap_3