* NGSPICE file created from Flash.ext - technology: sky130A

* Black-box entry subcircuit for sky130_fd_sc_hd__fill_1 abstract view
.subckt sky130_fd_sc_hd__fill_1 VGND VNB VPB VPWR
.ends

* Black-box entry subcircuit for sky130_fd_sc_hd__decap_6 abstract view
.subckt sky130_fd_sc_hd__decap_6 VGND VNB VPB VPWR
.ends

* Black-box entry subcircuit for sky130_fd_sc_hd__decap_12 abstract view
.subckt sky130_fd_sc_hd__decap_12 VGND VNB VPB VPWR
.ends

* Black-box entry subcircuit for sky130_fd_sc_hd__decap_4 abstract view
.subckt sky130_fd_sc_hd__decap_4 VGND VNB VPB VPWR
.ends

* Black-box entry subcircuit for sky130_fd_sc_hd__tapvpwrvgnd_1 abstract view
.subckt sky130_fd_sc_hd__tapvpwrvgnd_1 VGND VPWR
.ends

* Black-box entry subcircuit for sky130_fd_sc_hd__fill_2 abstract view
.subckt sky130_fd_sc_hd__fill_2 VGND VNB VPB VPWR
.ends

* Black-box entry subcircuit for sky130_fd_sc_hd__decap_3 abstract view
.subckt sky130_fd_sc_hd__decap_3 VGND VNB VPB VPWR
.ends

* Black-box entry subcircuit for sky130_fd_sc_hd__decap_8 abstract view
.subckt sky130_fd_sc_hd__decap_8 VGND VNB VPB VPWR
.ends

* Black-box entry subcircuit for sky130_fd_sc_hd__conb_1 abstract view
.subckt sky130_fd_sc_hd__conb_1 VGND VNB VPB VPWR HI LO
.ends

.subckt Flash clk core0Address[0] core0Address[10] core0Address[11] core0Address[12]
+ core0Address[13] core0Address[14] core0Address[15] core0Address[16] core0Address[17]
+ core0Address[18] core0Address[19] core0Address[1] core0Address[20] core0Address[21]
+ core0Address[22] core0Address[23] core0Address[24] core0Address[25] core0Address[26]
+ core0Address[27] core0Address[2] core0Address[3] core0Address[4] core0Address[5]
+ core0Address[6] core0Address[7] core0Address[8] core0Address[9] core0Busy core0ByteSelect[0]
+ core0ByteSelect[1] core0ByteSelect[2] core0ByteSelect[3] core0DataRead[0] core0DataRead[10]
+ core0DataRead[11] core0DataRead[12] core0DataRead[13] core0DataRead[14] core0DataRead[15]
+ core0DataRead[16] core0DataRead[17] core0DataRead[18] core0DataRead[19] core0DataRead[1]
+ core0DataRead[20] core0DataRead[21] core0DataRead[22] core0DataRead[23] core0DataRead[24]
+ core0DataRead[25] core0DataRead[26] core0DataRead[27] core0DataRead[28] core0DataRead[29]
+ core0DataRead[2] core0DataRead[30] core0DataRead[31] core0DataRead[3] core0DataRead[4]
+ core0DataRead[5] core0DataRead[6] core0DataRead[7] core0DataRead[8] core0DataRead[9]
+ core0DataWrite[0] core0DataWrite[10] core0DataWrite[11] core0DataWrite[12] core0DataWrite[13]
+ core0DataWrite[14] core0DataWrite[15] core0DataWrite[16] core0DataWrite[17] core0DataWrite[18]
+ core0DataWrite[19] core0DataWrite[1] core0DataWrite[20] core0DataWrite[21] core0DataWrite[22]
+ core0DataWrite[23] core0DataWrite[24] core0DataWrite[25] core0DataWrite[26] core0DataWrite[27]
+ core0DataWrite[28] core0DataWrite[29] core0DataWrite[2] core0DataWrite[30] core0DataWrite[31]
+ core0DataWrite[3] core0DataWrite[4] core0DataWrite[5] core0DataWrite[6] core0DataWrite[7]
+ core0DataWrite[8] core0DataWrite[9] core0ReadEnable core0WriteEnable flash_csb flash_io0_read
+ flash_io0_we flash_io0_write flash_io1_read flash_io1_we flash_io1_write flash_sck
+ rst vccd1 vssd1
XFILLER_79_391 vssd1 vssd1 vccd1 vccd1 sky130_fd_sc_hd__fill_1
XFILLER_22_133 vssd1 vssd1 vccd1 vccd1 sky130_fd_sc_hd__decap_6
XFILLER_52_29 vssd1 vssd1 vccd1 vccd1 sky130_fd_sc_hd__decap_12
XFILLER_168_29 vssd1 vssd1 vccd1 vccd1 sky130_fd_sc_hd__decap_12
XFILLER_167_105 vssd1 vssd1 vccd1 vccd1 sky130_fd_sc_hd__decap_6
XFILLER_167_149 vssd1 vssd1 vccd1 vccd1 sky130_fd_sc_hd__decap_12
XFILLER_22_177 vssd1 vssd1 vccd1 vccd1 sky130_fd_sc_hd__decap_12
XFILLER_148_363 vssd1 vssd1 vccd1 vccd1 sky130_fd_sc_hd__fill_1
XFILLER_89_111 vssd1 vssd1 vccd1 vccd1 sky130_fd_sc_hd__fill_1
XFILLER_117_55 vssd1 vssd1 vccd1 vccd1 sky130_fd_sc_hd__fill_1
XFILLER_77_15 vssd1 vssd1 vccd1 vccd1 sky130_fd_sc_hd__decap_12
XFILLER_77_317 vssd1 vssd1 vccd1 vccd1 sky130_fd_sc_hd__decap_12
XFILLER_85_361 vssd1 vssd1 vccd1 vccd1 sky130_fd_sc_hd__decap_12
XFILLER_92_309 vssd1 vssd1 vccd1 vccd1 sky130_fd_sc_hd__decap_12
XFILLER_172_3 vssd1 vssd1 vccd1 vccd1 sky130_fd_sc_hd__decap_12
XFILLER_45_225 vssd1 vssd1 vccd1 vccd1 sky130_fd_sc_hd__decap_12
XFILLER_26_41 vssd1 vssd1 vccd1 vccd1 sky130_fd_sc_hd__decap_12
XFILLER_93_69 vssd1 vssd1 vccd1 vccd1 sky130_fd_sc_hd__decap_12
XFILLER_26_85 vssd1 vssd1 vccd1 vccd1 sky130_fd_sc_hd__decap_12
XFILLER_13_111 vssd1 vssd1 vccd1 vccd1 sky130_fd_sc_hd__fill_1
XFILLER_9_137 vssd1 vssd1 vccd1 vccd1 sky130_fd_sc_hd__decap_12
XFILLER_139_385 vssd1 vssd1 vccd1 vccd1 sky130_fd_sc_hd__decap_6
XFILLER_154_333 vssd1 vssd1 vccd1 vccd1 sky130_fd_sc_hd__decap_12
XFILLER_154_377 vssd1 vssd1 vccd1 vccd1 sky130_fd_sc_hd__decap_12
XFILLER_107_293 vssd1 vssd1 vccd1 vccd1 sky130_fd_sc_hd__decap_12
XFILLER_95_125 vssd1 vssd1 vccd1 vccd1 sky130_fd_sc_hd__decap_12
XFILLER_67_81 vssd1 vssd1 vccd1 vccd1 sky130_fd_sc_hd__decap_12
XFILLER_95_169 vssd1 vssd1 vccd1 vccd1 sky130_fd_sc_hd__decap_12
XFILLER_51_217 vssd1 vssd1 vccd1 vccd1 sky130_fd_sc_hd__decap_6
XFILLER_149_105 vssd1 vssd1 vccd1 vccd1 sky130_fd_sc_hd__decap_6
XFILLER_149_149 vssd1 vssd1 vccd1 vccd1 sky130_fd_sc_hd__decap_12
XFILLER_157_193 vssd1 vssd1 vccd1 vccd1 sky130_fd_sc_hd__decap_12
XFILLER_172_141 vssd1 vssd1 vccd1 vccd1 sky130_fd_sc_hd__decap_12
XFILLER_145_399 vssd1 vssd1 vccd1 vccd1 sky130_fd_sc_hd__fill_1
XFILLER_59_317 vssd1 vssd1 vccd1 vccd1 sky130_fd_sc_hd__decap_12
XFILLER_101_403 vssd1 vssd1 vccd1 vccd1 sky130_fd_sc_hd__decap_4
XFILLER_67_361 vssd1 vssd1 vccd1 vccd1 sky130_fd_sc_hd__decap_12
XFILLER_74_309 vssd1 vssd1 vccd1 vccd1 sky130_fd_sc_hd__decap_12
XFILLER_27_225 vssd1 vssd1 vccd1 vccd1 sky130_fd_sc_hd__decap_12
XFILLER_103_57 vssd1 vssd1 vccd1 vccd1 sky130_fd_sc_hd__decap_12
XFILLER_63_39 vssd1 vssd1 vccd1 vccd1 sky130_fd_sc_hd__decap_12
XTAP_1107 vssd1 vccd1 sky130_fd_sc_hd__tapvpwrvgnd_1
XTAP_1118 vssd1 vccd1 sky130_fd_sc_hd__tapvpwrvgnd_1
XTAP_1129 vssd1 vccd1 sky130_fd_sc_hd__tapvpwrvgnd_1
XFILLER_136_333 vssd1 vssd1 vccd1 vccd1 sky130_fd_sc_hd__decap_12
XFILLER_12_65 vssd1 vssd1 vccd1 vccd1 sky130_fd_sc_hd__decap_12
XFILLER_136_377 vssd1 vssd1 vccd1 vccd1 sky130_fd_sc_hd__decap_12
XFILLER_128_65 vssd1 vssd1 vccd1 vccd1 sky130_fd_sc_hd__decap_12
XFILLER_2_357 vssd1 vssd1 vccd1 vccd1 sky130_fd_sc_hd__decap_6
XFILLER_144_53 vssd1 vssd1 vccd1 vccd1 sky130_fd_sc_hd__decap_12
XFILLER_77_125 vssd1 vssd1 vccd1 vccd1 sky130_fd_sc_hd__decap_12
XFILLER_144_97 vssd1 vssd1 vccd1 vccd1 sky130_fd_sc_hd__decap_12
XFILLER_77_169 vssd1 vssd1 vccd1 vccd1 sky130_fd_sc_hd__decap_12
XFILLER_37_51 vssd1 vssd1 vccd1 vccd1 sky130_fd_sc_hd__decap_4
XFILLER_92_139 vssd1 vssd1 vccd1 vccd1 sky130_fd_sc_hd__fill_1
XFILLER_160_41 vssd1 vssd1 vccd1 vccd1 sky130_fd_sc_hd__decap_12
XFILLER_160_85 vssd1 vssd1 vccd1 vccd1 sky130_fd_sc_hd__decap_12
XFILLER_33_217 vssd1 vssd1 vccd1 vccd1 sky130_fd_sc_hd__decap_6
XFILLER_41_261 vssd1 vssd1 vccd1 vccd1 sky130_fd_sc_hd__decap_12
XFILLER_139_193 vssd1 vssd1 vccd1 vccd1 sky130_fd_sc_hd__decap_12
XFILLER_154_141 vssd1 vssd1 vccd1 vccd1 sky130_fd_sc_hd__decap_12
XFILLER_96_401 vssd1 vssd1 vccd1 vccd1 sky130_fd_sc_hd__decap_6
XFILLER_110_233 vssd1 vssd1 vccd1 vccd1 sky130_fd_sc_hd__decap_12
XFILLER_56_309 vssd1 vssd1 vccd1 vccd1 sky130_fd_sc_hd__decap_12
XFILLER_49_361 vssd1 vssd1 vccd1 vccd1 sky130_fd_sc_hd__decap_12
XFILLER_110_277 vssd1 vssd1 vccd1 vccd1 sky130_fd_sc_hd__decap_12
XFILLER_91_161 vssd1 vssd1 vccd1 vccd1 sky130_fd_sc_hd__decap_6
XFILLER_20_401 vssd1 vssd1 vccd1 vccd1 sky130_fd_sc_hd__decap_6
XFILLER_118_333 vssd1 vssd1 vccd1 vccd1 sky130_fd_sc_hd__decap_12
XFILLER_118_377 vssd1 vssd1 vccd1 vccd1 sky130_fd_sc_hd__decap_12
XFILLER_160_133 vssd1 vssd1 vccd1 vccd1 sky130_fd_sc_hd__decap_6
XFILLER_160_177 vssd1 vssd1 vccd1 vccd1 sky130_fd_sc_hd__decap_12
XFILLER_99_261 vssd1 vssd1 vccd1 vccd1 sky130_fd_sc_hd__decap_12
XFILLER_141_391 vssd1 vssd1 vccd1 vccd1 sky130_fd_sc_hd__fill_1
XFILLER_59_125 vssd1 vssd1 vccd1 vccd1 sky130_fd_sc_hd__decap_12
XFILLER_59_169 vssd1 vssd1 vccd1 vccd1 sky130_fd_sc_hd__decap_12
XFILLER_74_139 vssd1 vssd1 vccd1 vccd1 sky130_fd_sc_hd__fill_1
XFILLER_74_27 vssd1 vssd1 vccd1 vccd1 sky130_fd_sc_hd__fill_1
XFILLER_15_217 vssd1 vssd1 vccd1 vccd1 sky130_fd_sc_hd__decap_6
XFILLER_70_301 vssd1 vssd1 vccd1 vccd1 sky130_fd_sc_hd__decap_6
XFILLER_70_345 vssd1 vssd1 vccd1 vccd1 sky130_fd_sc_hd__decap_12
XFILLER_130_77 vssd1 vssd1 vccd1 vccd1 sky130_fd_sc_hd__decap_6
XFILLER_30_209 vssd1 vssd1 vccd1 vccd1 sky130_fd_sc_hd__decap_12
XFILLER_90_15 vssd1 vssd1 vccd1 vccd1 sky130_fd_sc_hd__decap_12
XFILLER_168_233 vssd1 vssd1 vccd1 vccd1 sky130_fd_sc_hd__decap_12
XFILLER_23_261 vssd1 vssd1 vccd1 vccd1 sky130_fd_sc_hd__decap_12
XFILLER_70_389 vssd1 vssd1 vccd1 vccd1 sky130_fd_sc_hd__decap_12
XFILLER_168_277 vssd1 vssd1 vccd1 vccd1 sky130_fd_sc_hd__decap_12
XFILLER_135_3 vssd1 vssd1 vccd1 vccd1 sky130_fd_sc_hd__decap_12
XFILLER_7_405 vssd1 vssd1 vccd1 vccd1 sky130_fd_sc_hd__fill_2
XFILLER_136_141 vssd1 vssd1 vccd1 vccd1 sky130_fd_sc_hd__decap_12
XFILLER_151_111 vssd1 vssd1 vccd1 vccd1 sky130_fd_sc_hd__fill_1
XFILLER_99_57 vssd1 vssd1 vccd1 vccd1 sky130_fd_sc_hd__decap_12
XFILLER_2_121 vssd1 vssd1 vccd1 vccd1 sky130_fd_sc_hd__decap_12
XFILLER_2_165 vssd1 vssd1 vccd1 vccd1 sky130_fd_sc_hd__decap_12
XFILLER_38_309 vssd1 vssd1 vccd1 vccd1 sky130_fd_sc_hd__decap_12
XFILLER_171_51 vssd1 vssd1 vccd1 vccd1 sky130_fd_sc_hd__decap_4
XFILLER_48_83 vssd1 vssd1 vccd1 vccd1 sky130_fd_sc_hd__fill_1
XFILLER_0_57 vssd1 vssd1 vccd1 vccd1 sky130_fd_sc_hd__decap_12
XFILLER_73_161 vssd1 vssd1 vccd1 vccd1 sky130_fd_sc_hd__decap_6
XFILLER_80_109 vssd1 vssd1 vccd1 vccd1 sky130_fd_sc_hd__decap_12
XTAP_1460 vssd1 vccd1 sky130_fd_sc_hd__tapvpwrvgnd_1
XTAP_1493 vssd1 vccd1 sky130_fd_sc_hd__tapvpwrvgnd_1
XTAP_1482 vssd1 vccd1 sky130_fd_sc_hd__tapvpwrvgnd_1
XTAP_1471 vssd1 vccd1 sky130_fd_sc_hd__tapvpwrvgnd_1
XFILLER_9_55 vssd1 vssd1 vccd1 vccd1 sky130_fd_sc_hd__fill_1
XFILLER_174_225 vssd1 vssd1 vccd1 vccd1 sky130_fd_sc_hd__decap_12
XFILLER_142_133 vssd1 vssd1 vccd1 vccd1 sky130_fd_sc_hd__decap_6
XFILLER_50_3 vssd1 vssd1 vccd1 vccd1 sky130_fd_sc_hd__decap_12
XFILLER_142_177 vssd1 vssd1 vccd1 vccd1 sky130_fd_sc_hd__decap_12
XFILLER_88_209 vssd1 vssd1 vccd1 vccd1 sky130_fd_sc_hd__decap_12
XFILLER_123_391 vssd1 vssd1 vccd1 vccd1 sky130_fd_sc_hd__fill_1
XFILLER_96_253 vssd1 vssd1 vccd1 vccd1 sky130_fd_sc_hd__decap_12
XFILLER_56_139 vssd1 vssd1 vccd1 vccd1 sky130_fd_sc_hd__fill_1
XFILLER_52_301 vssd1 vssd1 vccd1 vccd1 sky130_fd_sc_hd__decap_6
XFILLER_12_209 vssd1 vssd1 vccd1 vccd1 sky130_fd_sc_hd__decap_12
XFILLER_52_345 vssd1 vssd1 vccd1 vccd1 sky130_fd_sc_hd__decap_12
XFILLER_52_389 vssd1 vssd1 vccd1 vccd1 sky130_fd_sc_hd__decap_12
XFILLER_165_225 vssd1 vssd1 vccd1 vccd1 sky130_fd_sc_hd__decap_12
XFILLER_20_253 vssd1 vssd1 vccd1 vccd1 sky130_fd_sc_hd__decap_12
XFILLER_60_29 vssd1 vssd1 vccd1 vccd1 sky130_fd_sc_hd__decap_12
XFILLER_118_141 vssd1 vssd1 vccd1 vccd1 sky130_fd_sc_hd__decap_12
XFILLER_133_111 vssd1 vssd1 vccd1 vccd1 sky130_fd_sc_hd__fill_1
XFILLER_69_27 vssd1 vssd1 vccd1 vccd1 sky130_fd_sc_hd__decap_12
XFILLER_121_317 vssd1 vssd1 vccd1 vccd1 sky130_fd_sc_hd__decap_12
XFILLER_125_55 vssd1 vssd1 vccd1 vccd1 sky130_fd_sc_hd__fill_1
XFILLER_85_15 vssd1 vssd1 vccd1 vccd1 sky130_fd_sc_hd__decap_12
XFILLER_18_53 vssd1 vssd1 vccd1 vccd1 sky130_fd_sc_hd__decap_12
XFILLER_55_161 vssd1 vssd1 vccd1 vccd1 sky130_fd_sc_hd__decap_6
XFILLER_62_109 vssd1 vssd1 vccd1 vccd1 sky130_fd_sc_hd__decap_12
XFILLER_18_97 vssd1 vssd1 vccd1 vccd1 sky130_fd_sc_hd__decap_12
XFILLER_28_397 vssd1 vssd1 vccd1 vccd1 sky130_fd_sc_hd__decap_3
XFILLER_70_153 vssd1 vssd1 vccd1 vccd1 sky130_fd_sc_hd__decap_12
XFILLER_34_41 vssd1 vssd1 vccd1 vccd1 sky130_fd_sc_hd__decap_12
XFILLER_34_85 vssd1 vssd1 vccd1 vccd1 sky130_fd_sc_hd__decap_12
XFILLER_70_197 vssd1 vssd1 vccd1 vccd1 sky130_fd_sc_hd__decap_12
XFILLER_171_217 vssd1 vssd1 vccd1 vccd1 sky130_fd_sc_hd__decap_6
XFILLER_7_279 vssd1 vssd1 vccd1 vccd1 sky130_fd_sc_hd__fill_1
XFILLER_124_133 vssd1 vssd1 vccd1 vccd1 sky130_fd_sc_hd__decap_6
XTAP_507 vssd1 vccd1 sky130_fd_sc_hd__tapvpwrvgnd_1
XFILLER_124_177 vssd1 vssd1 vccd1 vccd1 sky130_fd_sc_hd__decap_12
XTAP_529 vssd1 vccd1 sky130_fd_sc_hd__tapvpwrvgnd_1
XTAP_518 vssd1 vccd1 sky130_fd_sc_hd__tapvpwrvgnd_1
XFILLER_59_93 vssd1 vssd1 vccd1 vccd1 sky130_fd_sc_hd__decap_12
XFILLER_78_253 vssd1 vssd1 vccd1 vccd1 sky130_fd_sc_hd__decap_12
XFILLER_105_391 vssd1 vssd1 vccd1 vccd1 sky130_fd_sc_hd__fill_1
XFILLER_38_139 vssd1 vssd1 vccd1 vccd1 sky130_fd_sc_hd__fill_1
XFILLER_93_223 vssd1 vssd1 vccd1 vccd1 sky130_fd_sc_hd__fill_1
XFILLER_75_81 vssd1 vssd1 vccd1 vccd1 sky130_fd_sc_hd__decap_12
XFILLER_34_301 vssd1 vssd1 vccd1 vccd1 sky130_fd_sc_hd__decap_6
XFILLER_34_345 vssd1 vssd1 vccd1 vccd1 sky130_fd_sc_hd__decap_12
XFILLER_34_389 vssd1 vssd1 vccd1 vccd1 sky130_fd_sc_hd__decap_8
XFILLER_98_3 vssd1 vssd1 vccd1 vccd1 sky130_fd_sc_hd__decap_12
XTAP_1290 vssd1 vccd1 sky130_fd_sc_hd__tapvpwrvgnd_1
XFILLER_147_225 vssd1 vssd1 vccd1 vccd1 sky130_fd_sc_hd__decap_12
XFILLER_115_111 vssd1 vssd1 vccd1 vccd1 sky130_fd_sc_hd__fill_1
XFILLER_103_317 vssd1 vssd1 vccd1 vccd1 sky130_fd_sc_hd__decap_12
XFILLER_111_361 vssd1 vssd1 vccd1 vccd1 sky130_fd_sc_hd__decap_12
XFILLER_84_245 vssd1 vssd1 vccd1 vccd1 sky130_fd_sc_hd__decap_6
XFILLER_44_109 vssd1 vssd1 vccd1 vccd1 sky130_fd_sc_hd__decap_12
XFILLER_84_289 vssd1 vssd1 vccd1 vccd1 sky130_fd_sc_hd__decap_12
XFILLER_37_161 vssd1 vssd1 vccd1 vccd1 sky130_fd_sc_hd__decap_6
XFILLER_52_153 vssd1 vssd1 vccd1 vccd1 sky130_fd_sc_hd__decap_12
XFILLER_111_57 vssd1 vssd1 vccd1 vccd1 sky130_fd_sc_hd__decap_12
XFILLER_52_197 vssd1 vssd1 vccd1 vccd1 sky130_fd_sc_hd__decap_12
XFILLER_71_39 vssd1 vssd1 vccd1 vccd1 sky130_fd_sc_hd__decap_12
XFILLER_153_217 vssd1 vssd1 vccd1 vccd1 sky130_fd_sc_hd__decap_6
XFILLER_106_133 vssd1 vssd1 vccd1 vccd1 sky130_fd_sc_hd__decap_6
XFILLER_20_65 vssd1 vssd1 vccd1 vccd1 sky130_fd_sc_hd__decap_12
XFILLER_161_261 vssd1 vssd1 vccd1 vccd1 sky130_fd_sc_hd__decap_12
XFILLER_136_65 vssd1 vssd1 vccd1 vccd1 sky130_fd_sc_hd__decap_12
XFILLER_121_125 vssd1 vssd1 vccd1 vccd1 sky130_fd_sc_hd__decap_12
XFILLER_106_177 vssd1 vssd1 vccd1 vccd1 sky130_fd_sc_hd__decap_12
XFILLER_121_169 vssd1 vssd1 vccd1 vccd1 sky130_fd_sc_hd__decap_12
XFILLER_152_53 vssd1 vssd1 vccd1 vccd1 sky130_fd_sc_hd__decap_12
XFILLER_75_223 vssd1 vssd1 vccd1 vccd1 sky130_fd_sc_hd__fill_1
X_02__3 vssd1 vssd1 vccd1 vccd1 _02__3/HI core0DataRead[12] sky130_fd_sc_hd__conb_1
XFILLER_152_97 vssd1 vssd1 vccd1 vccd1 sky130_fd_sc_hd__decap_12
XFILLER_16_301 vssd1 vssd1 vccd1 vccd1 sky130_fd_sc_hd__decap_6
XFILLER_16_345 vssd1 vssd1 vccd1 vccd1 sky130_fd_sc_hd__decap_12
XFILLER_45_51 vssd1 vssd1 vccd1 vccd1 sky130_fd_sc_hd__decap_4
XFILLER_16_389 vssd1 vssd1 vccd1 vccd1 sky130_fd_sc_hd__decap_12
XPHY_340 vssd1 vssd1 vccd1 vccd1 sky130_fd_sc_hd__decap_3
XFILLER_169_361 vssd1 vssd1 vccd1 vccd1 sky130_fd_sc_hd__decap_12
XFILLER_31_337 vssd1 vssd1 vccd1 vccd1 sky130_fd_sc_hd__decap_12
XFILLER_129_225 vssd1 vssd1 vccd1 vccd1 sky130_fd_sc_hd__decap_12
XFILLER_3_293 vssd1 vssd1 vccd1 vccd1 sky130_fd_sc_hd__decap_12
XTAP_359 vssd1 vccd1 sky130_fd_sc_hd__tapvpwrvgnd_1
XFILLER_100_309 vssd1 vssd1 vccd1 vccd1 sky130_fd_sc_hd__decap_12
XFILLER_13_3 vssd1 vssd1 vccd1 vccd1 sky130_fd_sc_hd__decap_12
XFILLER_66_245 vssd1 vssd1 vccd1 vccd1 sky130_fd_sc_hd__decap_6
XFILLER_26_109 vssd1 vssd1 vccd1 vccd1 sky130_fd_sc_hd__decap_12
XFILLER_19_161 vssd1 vssd1 vccd1 vccd1 sky130_fd_sc_hd__decap_6
XFILLER_66_289 vssd1 vssd1 vccd1 vccd1 sky130_fd_sc_hd__decap_12
XFILLER_81_237 vssd1 vssd1 vccd1 vccd1 sky130_fd_sc_hd__decap_12
XFILLER_34_153 vssd1 vssd1 vccd1 vccd1 sky130_fd_sc_hd__decap_12
XFILLER_34_197 vssd1 vssd1 vccd1 vccd1 sky130_fd_sc_hd__decap_12
XFILLER_135_217 vssd1 vssd1 vccd1 vccd1 sky130_fd_sc_hd__decap_6
XFILLER_150_209 vssd1 vssd1 vccd1 vccd1 sky130_fd_sc_hd__decap_12
XFILLER_143_261 vssd1 vssd1 vccd1 vccd1 sky130_fd_sc_hd__decap_12
XFILLER_89_337 vssd1 vssd1 vccd1 vccd1 sky130_fd_sc_hd__decap_12
XFILLER_103_125 vssd1 vssd1 vccd1 vccd1 sky130_fd_sc_hd__decap_12
XTAP_860 vssd1 vccd1 sky130_fd_sc_hd__tapvpwrvgnd_1
XTAP_871 vssd1 vccd1 sky130_fd_sc_hd__tapvpwrvgnd_1
XFILLER_103_169 vssd1 vssd1 vccd1 vccd1 sky130_fd_sc_hd__decap_12
XFILLER_57_223 vssd1 vssd1 vccd1 vccd1 sky130_fd_sc_hd__fill_1
XTAP_882 vssd1 vccd1 sky130_fd_sc_hd__tapvpwrvgnd_1
XTAP_893 vssd1 vccd1 sky130_fd_sc_hd__tapvpwrvgnd_1
XFILLER_82_27 vssd1 vssd1 vccd1 vccd1 sky130_fd_sc_hd__fill_1
XFILLER_158_309 vssd1 vssd1 vccd1 vccd1 sky130_fd_sc_hd__decap_12
XFILLER_13_337 vssd1 vssd1 vccd1 vccd1 sky130_fd_sc_hd__decap_12
XFILLER_40_189 vssd1 vssd1 vccd1 vccd1 sky130_fd_sc_hd__decap_6
XFILLER_166_397 vssd1 vssd1 vccd1 vccd1 sky130_fd_sc_hd__decap_3
XFILLER_122_401 vssd1 vssd1 vccd1 vccd1 sky130_fd_sc_hd__decap_6
XFILLER_95_329 vssd1 vssd1 vccd1 vccd1 sky130_fd_sc_hd__decap_6
XFILLER_48_245 vssd1 vssd1 vccd1 vccd1 sky130_fd_sc_hd__decap_6
XFILLER_48_289 vssd1 vssd1 vccd1 vccd1 sky130_fd_sc_hd__decap_12
XFILLER_56_83 vssd1 vssd1 vccd1 vccd1 sky130_fd_sc_hd__fill_1
XFILLER_63_237 vssd1 vssd1 vccd1 vccd1 sky130_fd_sc_hd__decap_12
XFILLER_16_153 vssd1 vssd1 vccd1 vccd1 sky130_fd_sc_hd__decap_12
XFILLER_16_197 vssd1 vssd1 vccd1 vccd1 sky130_fd_sc_hd__decap_12
XFILLER_71_281 vssd1 vssd1 vccd1 vccd1 sky130_fd_sc_hd__decap_12
XFILLER_31_167 vssd1 vssd1 vccd1 vccd1 sky130_fd_sc_hd__fill_1
XPHY_170 vssd1 vssd1 vccd1 vccd1 sky130_fd_sc_hd__decap_3
XPHY_181 vssd1 vssd1 vccd1 vccd1 sky130_fd_sc_hd__decap_3
XPHY_192 vssd1 vssd1 vccd1 vccd1 sky130_fd_sc_hd__decap_3
XFILLER_172_301 vssd1 vssd1 vccd1 vccd1 sky130_fd_sc_hd__decap_6
XFILLER_117_217 vssd1 vssd1 vccd1 vccd1 sky130_fd_sc_hd__decap_6
XFILLER_8_363 vssd1 vssd1 vccd1 vccd1 sky130_fd_sc_hd__fill_1
XFILLER_172_345 vssd1 vssd1 vccd1 vccd1 sky130_fd_sc_hd__decap_12
XFILLER_132_209 vssd1 vssd1 vccd1 vccd1 sky130_fd_sc_hd__decap_12
XFILLER_172_389 vssd1 vssd1 vccd1 vccd1 sky130_fd_sc_hd__decap_12
XFILLER_125_261 vssd1 vssd1 vccd1 vccd1 sky130_fd_sc_hd__decap_12
XFILLER_140_253 vssd1 vssd1 vccd1 vccd1 sky130_fd_sc_hd__decap_12
XFILLER_86_307 vssd1 vssd1 vccd1 vccd1 sky130_fd_sc_hd__fill_1
XFILLER_98_189 vssd1 vssd1 vccd1 vccd1 sky130_fd_sc_hd__decap_6
XFILLER_39_223 vssd1 vssd1 vccd1 vccd1 sky130_fd_sc_hd__fill_1
XFILLER_100_139 vssd1 vssd1 vccd1 vccd1 sky130_fd_sc_hd__fill_1
XFILLER_10_307 vssd1 vssd1 vccd1 vccd1 sky130_fd_sc_hd__fill_1
XFILLER_22_189 vssd1 vssd1 vccd1 vccd1 sky130_fd_sc_hd__decap_6
XFILLER_104_401 vssd1 vssd1 vccd1 vccd1 sky130_fd_sc_hd__decap_6
XFILLER_77_27 vssd1 vssd1 vccd1 vccd1 sky130_fd_sc_hd__decap_12
XFILLER_77_329 vssd1 vssd1 vccd1 vccd1 sky130_fd_sc_hd__decap_6
XFILLER_89_167 vssd1 vssd1 vccd1 vccd1 sky130_fd_sc_hd__fill_1
XFILLER_133_55 vssd1 vssd1 vccd1 vccd1 sky130_fd_sc_hd__fill_1
XTAP_690 vssd1 vccd1 sky130_fd_sc_hd__tapvpwrvgnd_1
XFILLER_93_15 vssd1 vssd1 vccd1 vccd1 sky130_fd_sc_hd__decap_12
XFILLER_85_373 vssd1 vssd1 vccd1 vccd1 sky130_fd_sc_hd__decap_12
XFILLER_45_237 vssd1 vssd1 vccd1 vccd1 sky130_fd_sc_hd__decap_12
XFILLER_165_3 vssd1 vssd1 vccd1 vccd1 sky130_fd_sc_hd__decap_12
XFILLER_26_53 vssd1 vssd1 vccd1 vccd1 sky130_fd_sc_hd__decap_12
XFILLER_26_97 vssd1 vssd1 vccd1 vccd1 sky130_fd_sc_hd__decap_12
XFILLER_53_281 vssd1 vssd1 vccd1 vccd1 sky130_fd_sc_hd__decap_12
XFILLER_13_167 vssd1 vssd1 vccd1 vccd1 sky130_fd_sc_hd__fill_1
XFILLER_9_105 vssd1 vssd1 vccd1 vccd1 sky130_fd_sc_hd__decap_6
XFILLER_158_139 vssd1 vssd1 vccd1 vccd1 sky130_fd_sc_hd__fill_1
XFILLER_9_149 vssd1 vssd1 vccd1 vccd1 sky130_fd_sc_hd__decap_12
XFILLER_42_41 vssd1 vssd1 vccd1 vccd1 sky130_fd_sc_hd__decap_12
XFILLER_158_41 vssd1 vssd1 vccd1 vccd1 sky130_fd_sc_hd__decap_12
XFILLER_154_301 vssd1 vssd1 vccd1 vccd1 sky130_fd_sc_hd__decap_6
XFILLER_42_85 vssd1 vssd1 vccd1 vccd1 sky130_fd_sc_hd__decap_12
XFILLER_158_85 vssd1 vssd1 vccd1 vccd1 sky130_fd_sc_hd__decap_12
XFILLER_154_345 vssd1 vssd1 vccd1 vccd1 sky130_fd_sc_hd__decap_12
XFILLER_114_209 vssd1 vssd1 vccd1 vccd1 sky130_fd_sc_hd__decap_12
XFILLER_154_389 vssd1 vssd1 vccd1 vccd1 sky130_fd_sc_hd__decap_12
XFILLER_107_261 vssd1 vssd1 vccd1 vccd1 sky130_fd_sc_hd__decap_12
XFILLER_122_253 vssd1 vssd1 vccd1 vccd1 sky130_fd_sc_hd__decap_12
XFILLER_68_307 vssd1 vssd1 vccd1 vccd1 sky130_fd_sc_hd__fill_1
XFILLER_3_57 vssd1 vssd1 vccd1 vccd1 sky130_fd_sc_hd__decap_12
XFILLER_95_137 vssd1 vssd1 vccd1 vccd1 sky130_fd_sc_hd__decap_12
XFILLER_67_93 vssd1 vssd1 vccd1 vccd1 sky130_fd_sc_hd__decap_12
XFILLER_83_81 vssd1 vssd1 vccd1 vccd1 sky130_fd_sc_hd__decap_12
XFILLER_80_3 vssd1 vssd1 vccd1 vccd1 sky130_fd_sc_hd__decap_12
XFILLER_164_109 vssd1 vssd1 vccd1 vccd1 sky130_fd_sc_hd__decap_12
XFILLER_157_161 vssd1 vssd1 vccd1 vccd1 sky130_fd_sc_hd__decap_6
XFILLER_172_153 vssd1 vssd1 vccd1 vccd1 sky130_fd_sc_hd__decap_12
XFILLER_172_197 vssd1 vssd1 vccd1 vccd1 sky130_fd_sc_hd__decap_12
XFILLER_59_329 vssd1 vssd1 vccd1 vccd1 sky130_fd_sc_hd__decap_6
XFILLER_67_373 vssd1 vssd1 vccd1 vccd1 sky130_fd_sc_hd__decap_12
XFILLER_27_237 vssd1 vssd1 vccd1 vccd1 sky130_fd_sc_hd__decap_12
XFILLER_82_321 vssd1 vssd1 vccd1 vccd1 sky130_fd_sc_hd__decap_12
XFILLER_82_365 vssd1 vssd1 vccd1 vccd1 sky130_fd_sc_hd__decap_12
XFILLER_103_69 vssd1 vssd1 vccd1 vccd1 sky130_fd_sc_hd__decap_12
XTAP_1108 vssd1 vccd1 sky130_fd_sc_hd__tapvpwrvgnd_1
XTAP_1119 vssd1 vccd1 sky130_fd_sc_hd__tapvpwrvgnd_1
XFILLER_35_281 vssd1 vssd1 vccd1 vccd1 sky130_fd_sc_hd__decap_12
XFILLER_50_251 vssd1 vssd1 vccd1 vccd1 sky130_fd_sc_hd__fill_1
XFILLER_136_301 vssd1 vssd1 vccd1 vccd1 sky130_fd_sc_hd__decap_6
XFILLER_136_345 vssd1 vssd1 vccd1 vccd1 sky130_fd_sc_hd__decap_12
XFILLER_12_77 vssd1 vssd1 vccd1 vccd1 sky130_fd_sc_hd__decap_6
XFILLER_136_389 vssd1 vssd1 vccd1 vccd1 sky130_fd_sc_hd__decap_12
XFILLER_128_77 vssd1 vssd1 vccd1 vccd1 sky130_fd_sc_hd__decap_6
XFILLER_88_15 vssd1 vssd1 vccd1 vccd1 sky130_fd_sc_hd__decap_12
XFILLER_151_337 vssd1 vssd1 vccd1 vccd1 sky130_fd_sc_hd__decap_12
XFILLER_104_253 vssd1 vssd1 vccd1 vccd1 sky130_fd_sc_hd__decap_12
XFILLER_144_65 vssd1 vssd1 vccd1 vccd1 sky130_fd_sc_hd__decap_12
XFILLER_77_137 vssd1 vssd1 vccd1 vccd1 sky130_fd_sc_hd__decap_12
XFILLER_160_53 vssd1 vssd1 vccd1 vccd1 sky130_fd_sc_hd__decap_12
XFILLER_85_181 vssd1 vssd1 vccd1 vccd1 sky130_fd_sc_hd__decap_12
XFILLER_160_97 vssd1 vssd1 vccd1 vccd1 sky130_fd_sc_hd__decap_12
XFILLER_53_51 vssd1 vssd1 vccd1 vccd1 sky130_fd_sc_hd__decap_4
XFILLER_169_51 vssd1 vssd1 vccd1 vccd1 sky130_fd_sc_hd__decap_4
XFILLER_41_273 vssd1 vssd1 vccd1 vccd1 sky130_fd_sc_hd__decap_6
XFILLER_146_109 vssd1 vssd1 vccd1 vccd1 sky130_fd_sc_hd__decap_12
XFILLER_139_161 vssd1 vssd1 vccd1 vccd1 sky130_fd_sc_hd__decap_6
XFILLER_154_153 vssd1 vssd1 vccd1 vccd1 sky130_fd_sc_hd__decap_12
XFILLER_154_197 vssd1 vssd1 vccd1 vccd1 sky130_fd_sc_hd__decap_12
XFILLER_1_391 vssd1 vssd1 vccd1 vccd1 sky130_fd_sc_hd__fill_1
XFILLER_110_245 vssd1 vssd1 vccd1 vccd1 sky130_fd_sc_hd__decap_6
XFILLER_49_373 vssd1 vssd1 vccd1 vccd1 sky130_fd_sc_hd__decap_12
XFILLER_110_289 vssd1 vssd1 vccd1 vccd1 sky130_fd_sc_hd__decap_12
XFILLER_64_321 vssd1 vssd1 vccd1 vccd1 sky130_fd_sc_hd__decap_12
XFILLER_64_365 vssd1 vssd1 vccd1 vccd1 sky130_fd_sc_hd__decap_12
XFILLER_17_281 vssd1 vssd1 vccd1 vccd1 sky130_fd_sc_hd__decap_12
XFILLER_32_251 vssd1 vssd1 vccd1 vccd1 sky130_fd_sc_hd__fill_1
XFILLER_118_301 vssd1 vssd1 vccd1 vccd1 sky130_fd_sc_hd__decap_6
XFILLER_118_345 vssd1 vssd1 vccd1 vccd1 sky130_fd_sc_hd__decap_12
XFILLER_118_389 vssd1 vssd1 vccd1 vccd1 sky130_fd_sc_hd__decap_12
XFILLER_133_337 vssd1 vssd1 vccd1 vccd1 sky130_fd_sc_hd__decap_12
XFILLER_58_29 vssd1 vssd1 vccd1 vccd1 sky130_fd_sc_hd__decap_12
XFILLER_160_189 vssd1 vssd1 vccd1 vccd1 sky130_fd_sc_hd__decap_6
XFILLER_59_137 vssd1 vssd1 vccd1 vccd1 sky130_fd_sc_hd__decap_12
XFILLER_99_273 vssd1 vssd1 vccd1 vccd1 sky130_fd_sc_hd__decap_6
XFILLER_101_223 vssd1 vssd1 vccd1 vccd1 sky130_fd_sc_hd__fill_1
XFILLER_67_181 vssd1 vssd1 vccd1 vccd1 sky130_fd_sc_hd__decap_12
XFILLER_82_195 vssd1 vssd1 vccd1 vccd1 sky130_fd_sc_hd__fill_1
XFILLER_70_357 vssd1 vssd1 vccd1 vccd1 sky130_fd_sc_hd__decap_6
XFILLER_90_27 vssd1 vssd1 vccd1 vccd1 sky130_fd_sc_hd__fill_1
XFILLER_168_245 vssd1 vssd1 vccd1 vccd1 sky130_fd_sc_hd__decap_6
XFILLER_23_273 vssd1 vssd1 vccd1 vccd1 sky130_fd_sc_hd__decap_6
XFILLER_128_109 vssd1 vssd1 vccd1 vccd1 sky130_fd_sc_hd__decap_12
XFILLER_168_289 vssd1 vssd1 vccd1 vccd1 sky130_fd_sc_hd__decap_12
XFILLER_128_3 vssd1 vssd1 vccd1 vccd1 sky130_fd_sc_hd__decap_12
XFILLER_136_153 vssd1 vssd1 vccd1 vccd1 sky130_fd_sc_hd__decap_12
XFILLER_99_69 vssd1 vssd1 vccd1 vccd1 sky130_fd_sc_hd__decap_12
XFILLER_136_197 vssd1 vssd1 vccd1 vccd1 sky130_fd_sc_hd__decap_12
XFILLER_151_167 vssd1 vssd1 vccd1 vccd1 sky130_fd_sc_hd__fill_1
XFILLER_2_133 vssd1 vssd1 vccd1 vccd1 sky130_fd_sc_hd__decap_6
XFILLER_2_177 vssd1 vssd1 vccd1 vccd1 sky130_fd_sc_hd__decap_12
XFILLER_93_405 vssd1 vssd1 vccd1 vccd1 sky130_fd_sc_hd__fill_2
XFILLER_46_321 vssd1 vssd1 vccd1 vccd1 sky130_fd_sc_hd__decap_12
XFILLER_0_69 vssd1 vssd1 vccd1 vccd1 sky130_fd_sc_hd__decap_12
XFILLER_46_365 vssd1 vssd1 vccd1 vccd1 sky130_fd_sc_hd__decap_12
XFILLER_61_335 vssd1 vssd1 vccd1 vccd1 sky130_fd_sc_hd__fill_1
XTAP_1450 vssd1 vccd1 sky130_fd_sc_hd__tapvpwrvgnd_1
XFILLER_64_83 vssd1 vssd1 vccd1 vccd1 sky130_fd_sc_hd__fill_1
XTAP_1483 vssd1 vccd1 sky130_fd_sc_hd__tapvpwrvgnd_1
XFILLER_159_223 vssd1 vssd1 vccd1 vccd1 sky130_fd_sc_hd__fill_1
XTAP_1472 vssd1 vccd1 sky130_fd_sc_hd__tapvpwrvgnd_1
XTAP_1461 vssd1 vccd1 sky130_fd_sc_hd__tapvpwrvgnd_1
XFILLER_14_251 vssd1 vssd1 vccd1 vccd1 sky130_fd_sc_hd__fill_1
XTAP_1494 vssd1 vccd1 sky130_fd_sc_hd__tapvpwrvgnd_1
XFILLER_174_237 vssd1 vssd1 vccd1 vccd1 sky130_fd_sc_hd__decap_12
X_27__28 vssd1 vssd1 vccd1 vccd1 _27__28/HI flash_sck sky130_fd_sc_hd__conb_1
XFILLER_115_337 vssd1 vssd1 vccd1 vccd1 sky130_fd_sc_hd__decap_12
XFILLER_130_307 vssd1 vssd1 vccd1 vccd1 sky130_fd_sc_hd__fill_1
XFILLER_43_3 vssd1 vssd1 vccd1 vccd1 sky130_fd_sc_hd__decap_12
XFILLER_142_189 vssd1 vssd1 vccd1 vccd1 sky130_fd_sc_hd__decap_6
XFILLER_96_221 vssd1 vssd1 vccd1 vccd1 sky130_fd_sc_hd__decap_12
XFILLER_96_265 vssd1 vssd1 vccd1 vccd1 sky130_fd_sc_hd__decap_12
XFILLER_49_181 vssd1 vssd1 vccd1 vccd1 sky130_fd_sc_hd__decap_12
XFILLER_64_195 vssd1 vssd1 vccd1 vccd1 sky130_fd_sc_hd__fill_1
XFILLER_52_357 vssd1 vssd1 vccd1 vccd1 sky130_fd_sc_hd__decap_6
XFILLER_100_15 vssd1 vssd1 vccd1 vccd1 sky130_fd_sc_hd__decap_12
XFILLER_20_221 vssd1 vssd1 vccd1 vccd1 sky130_fd_sc_hd__decap_12
XFILLER_165_237 vssd1 vssd1 vccd1 vccd1 sky130_fd_sc_hd__decap_12
XFILLER_20_265 vssd1 vssd1 vccd1 vccd1 sky130_fd_sc_hd__decap_12
XFILLER_118_153 vssd1 vssd1 vccd1 vccd1 sky130_fd_sc_hd__decap_12
XFILLER_173_281 vssd1 vssd1 vccd1 vccd1 sky130_fd_sc_hd__decap_12
XFILLER_118_197 vssd1 vssd1 vccd1 vccd1 sky130_fd_sc_hd__decap_12
XFILLER_69_39 vssd1 vssd1 vccd1 vccd1 sky130_fd_sc_hd__decap_12
XFILLER_109_57 vssd1 vssd1 vccd1 vccd1 sky130_fd_sc_hd__decap_12
XFILLER_133_167 vssd1 vssd1 vccd1 vccd1 sky130_fd_sc_hd__fill_1
XFILLER_121_329 vssd1 vssd1 vccd1 vccd1 sky130_fd_sc_hd__decap_6
XFILLER_75_405 vssd1 vssd1 vccd1 vccd1 sky130_fd_sc_hd__fill_2
XFILLER_85_27 vssd1 vssd1 vccd1 vccd1 sky130_fd_sc_hd__decap_12
XFILLER_28_321 vssd1 vssd1 vccd1 vccd1 sky130_fd_sc_hd__decap_12
XFILLER_141_55 vssd1 vssd1 vccd1 vccd1 sky130_fd_sc_hd__fill_1
XFILLER_28_365 vssd1 vssd1 vccd1 vccd1 sky130_fd_sc_hd__decap_12
XFILLER_18_65 vssd1 vssd1 vccd1 vccd1 sky130_fd_sc_hd__decap_12
XFILLER_43_335 vssd1 vssd1 vccd1 vccd1 sky130_fd_sc_hd__fill_1
XFILLER_70_121 vssd1 vssd1 vccd1 vccd1 sky130_fd_sc_hd__decap_12
XFILLER_34_53 vssd1 vssd1 vccd1 vccd1 sky130_fd_sc_hd__decap_12
XFILLER_70_165 vssd1 vssd1 vccd1 vccd1 sky130_fd_sc_hd__decap_12
XFILLER_34_97 vssd1 vssd1 vccd1 vccd1 sky130_fd_sc_hd__decap_12
XFILLER_7_225 vssd1 vssd1 vccd1 vccd1 sky130_fd_sc_hd__decap_12
XFILLER_50_41 vssd1 vssd1 vccd1 vccd1 sky130_fd_sc_hd__decap_12
XFILLER_166_41 vssd1 vssd1 vccd1 vccd1 sky130_fd_sc_hd__decap_12
XFILLER_50_85 vssd1 vssd1 vccd1 vccd1 sky130_fd_sc_hd__decap_12
XFILLER_166_85 vssd1 vssd1 vccd1 vccd1 sky130_fd_sc_hd__decap_12
XFILLER_112_307 vssd1 vssd1 vccd1 vccd1 sky130_fd_sc_hd__fill_1
XFILLER_124_189 vssd1 vssd1 vccd1 vccd1 sky130_fd_sc_hd__decap_6
XTAP_519 vssd1 vccd1 sky130_fd_sc_hd__tapvpwrvgnd_1
XTAP_508 vssd1 vccd1 sky130_fd_sc_hd__tapvpwrvgnd_1
XFILLER_78_221 vssd1 vssd1 vccd1 vccd1 sky130_fd_sc_hd__decap_12
XFILLER_78_265 vssd1 vssd1 vccd1 vccd1 sky130_fd_sc_hd__decap_12
XFILLER_93_279 vssd1 vssd1 vccd1 vccd1 sky130_fd_sc_hd__fill_1
XFILLER_75_93 vssd1 vssd1 vccd1 vccd1 sky130_fd_sc_hd__decap_12
XFILLER_34_357 vssd1 vssd1 vccd1 vccd1 sky130_fd_sc_hd__decap_6
XFILLER_46_195 vssd1 vssd1 vccd1 vccd1 sky130_fd_sc_hd__fill_1
XTAP_1291 vssd1 vccd1 sky130_fd_sc_hd__tapvpwrvgnd_1
XTAP_1280 vssd1 vccd1 sky130_fd_sc_hd__tapvpwrvgnd_1
XFILLER_91_81 vssd1 vssd1 vccd1 vccd1 sky130_fd_sc_hd__decap_12
XFILLER_147_237 vssd1 vssd1 vccd1 vccd1 sky130_fd_sc_hd__decap_12
XFILLER_155_281 vssd1 vssd1 vccd1 vccd1 sky130_fd_sc_hd__decap_12
XFILLER_170_251 vssd1 vssd1 vccd1 vccd1 sky130_fd_sc_hd__fill_1
XFILLER_115_167 vssd1 vssd1 vccd1 vccd1 sky130_fd_sc_hd__fill_1
XFILLER_103_329 vssd1 vssd1 vccd1 vccd1 sky130_fd_sc_hd__decap_6
XFILLER_57_405 vssd1 vssd1 vccd1 vccd1 sky130_fd_sc_hd__fill_2
XFILLER_111_373 vssd1 vssd1 vccd1 vccd1 sky130_fd_sc_hd__decap_12
XFILLER_25_335 vssd1 vssd1 vccd1 vccd1 sky130_fd_sc_hd__fill_1
XFILLER_52_121 vssd1 vssd1 vccd1 vccd1 sky130_fd_sc_hd__decap_12
XFILLER_52_165 vssd1 vssd1 vccd1 vccd1 sky130_fd_sc_hd__decap_12
XFILLER_111_69 vssd1 vssd1 vccd1 vccd1 sky130_fd_sc_hd__decap_12
XFILLER_20_77 vssd1 vssd1 vccd1 vccd1 sky130_fd_sc_hd__decap_6
XFILLER_161_273 vssd1 vssd1 vccd1 vccd1 sky130_fd_sc_hd__decap_6
XFILLER_136_77 vssd1 vssd1 vccd1 vccd1 sky130_fd_sc_hd__decap_6
XFILLER_96_15 vssd1 vssd1 vccd1 vccd1 sky130_fd_sc_hd__decap_12
XFILLER_106_189 vssd1 vssd1 vccd1 vccd1 sky130_fd_sc_hd__decap_6
XFILLER_121_137 vssd1 vssd1 vccd1 vccd1 sky130_fd_sc_hd__decap_12