* NGSPICE file created from PWM.ext - technology: sky130A

* Black-box entry subcircuit for sky130_fd_sc_hd__decap_8 abstract view
.subckt sky130_fd_sc_hd__decap_8 VGND VNB VPB VPWR
.ends

* Black-box entry subcircuit for sky130_fd_sc_hd__diode_2 abstract view
.subckt sky130_fd_sc_hd__diode_2 DIODE VGND VNB VPB VPWR
.ends

* Black-box entry subcircuit for sky130_fd_sc_hd__dlymetal6s2s_1 abstract view
.subckt sky130_fd_sc_hd__dlymetal6s2s_1 A VGND VNB VPB VPWR X
.ends

* Black-box entry subcircuit for sky130_fd_sc_hd__clkbuf_1 abstract view
.subckt sky130_fd_sc_hd__clkbuf_1 A VGND VNB VPB VPWR X
.ends

* Black-box entry subcircuit for sky130_fd_sc_hd__conb_1 abstract view
.subckt sky130_fd_sc_hd__conb_1 VGND VNB VPB VPWR HI LO
.ends

* Black-box entry subcircuit for sky130_fd_sc_hd__buf_4 abstract view
.subckt sky130_fd_sc_hd__buf_4 A VGND VNB VPB VPWR X
.ends

* Black-box entry subcircuit for sky130_fd_sc_hd__decap_4 abstract view
.subckt sky130_fd_sc_hd__decap_4 VGND VNB VPB VPWR
.ends

* Black-box entry subcircuit for sky130_fd_sc_hd__fill_1 abstract view
.subckt sky130_fd_sc_hd__fill_1 VGND VNB VPB VPWR
.ends

* Black-box entry subcircuit for sky130_fd_sc_hd__clkbuf_4 abstract view
.subckt sky130_fd_sc_hd__clkbuf_4 A VGND VNB VPB VPWR X
.ends

* Black-box entry subcircuit for sky130_fd_sc_hd__or3_1 abstract view
.subckt sky130_fd_sc_hd__or3_1 A B C VGND VNB VPB VPWR X
.ends

* Black-box entry subcircuit for sky130_fd_sc_hd__mux2_1 abstract view
.subckt sky130_fd_sc_hd__mux2_1 A0 A1 S VGND VNB VPB VPWR X
.ends

* Black-box entry subcircuit for sky130_fd_sc_hd__fill_2 abstract view
.subckt sky130_fd_sc_hd__fill_2 VGND VNB VPB VPWR
.ends

* Black-box entry subcircuit for sky130_fd_sc_hd__decap_6 abstract view
.subckt sky130_fd_sc_hd__decap_6 VGND VNB VPB VPWR
.ends

* Black-box entry subcircuit for sky130_fd_sc_hd__or2_1 abstract view
.subckt sky130_fd_sc_hd__or2_1 A B VGND VNB VPB VPWR X
.ends

* Black-box entry subcircuit for sky130_fd_sc_hd__inv_6 abstract view
.subckt sky130_fd_sc_hd__inv_6 A VGND VNB VPB VPWR Y
.ends

* Black-box entry subcircuit for sky130_fd_sc_hd__mux4_2 abstract view
.subckt sky130_fd_sc_hd__mux4_2 A0 A1 A2 A3 S0 S1 VGND VNB VPB VPWR X
.ends

* Black-box entry subcircuit for sky130_fd_sc_hd__nor3_1 abstract view
.subckt sky130_fd_sc_hd__nor3_1 A B C VGND VNB VPB VPWR Y
.ends

* Black-box entry subcircuit for sky130_fd_sc_hd__tapvpwrvgnd_1 abstract view
.subckt sky130_fd_sc_hd__tapvpwrvgnd_1 VGND VPWR
.ends

* Black-box entry subcircuit for sky130_fd_sc_hd__dfxtp_1 abstract view
.subckt sky130_fd_sc_hd__dfxtp_1 CLK D VGND VNB VPB VPWR Q
.ends

* Black-box entry subcircuit for sky130_fd_sc_hd__and2_1 abstract view
.subckt sky130_fd_sc_hd__and2_1 A B VGND VNB VPB VPWR X
.ends

* Black-box entry subcircuit for sky130_fd_sc_hd__decap_3 abstract view
.subckt sky130_fd_sc_hd__decap_3 VGND VNB VPB VPWR
.ends

* Black-box entry subcircuit for sky130_fd_sc_hd__ebufn_8 abstract view
.subckt sky130_fd_sc_hd__ebufn_8 A TE_B VGND VNB VPB VPWR Z
.ends

* Black-box entry subcircuit for sky130_fd_sc_hd__o21ai_1 abstract view
.subckt sky130_fd_sc_hd__o21ai_1 A1 A2 B1 VGND VNB VPB VPWR Y
.ends

* Black-box entry subcircuit for sky130_fd_sc_hd__o211a_1 abstract view
.subckt sky130_fd_sc_hd__o211a_1 A1 A2 B1 C1 VGND VNB VPB VPWR X
.ends

* Black-box entry subcircuit for sky130_fd_sc_hd__decap_12 abstract view
.subckt sky130_fd_sc_hd__decap_12 VGND VNB VPB VPWR
.ends

* Black-box entry subcircuit for sky130_fd_sc_hd__or4_1 abstract view
.subckt sky130_fd_sc_hd__or4_1 A B C D VGND VNB VPB VPWR X
.ends

* Black-box entry subcircuit for sky130_fd_sc_hd__xnor2_1 abstract view
.subckt sky130_fd_sc_hd__xnor2_1 A B VGND VNB VPB VPWR Y
.ends

* Black-box entry subcircuit for sky130_fd_sc_hd__buf_12 abstract view
.subckt sky130_fd_sc_hd__buf_12 A VGND VNB VPB VPWR X
.ends

* Black-box entry subcircuit for sky130_fd_sc_hd__clkbuf_2 abstract view
.subckt sky130_fd_sc_hd__clkbuf_2 A VGND VNB VPB VPWR X
.ends

* Black-box entry subcircuit for sky130_fd_sc_hd__xor2_1 abstract view
.subckt sky130_fd_sc_hd__xor2_1 A B VGND VNB VPB VPWR X
.ends

* Black-box entry subcircuit for sky130_fd_sc_hd__mux4_1 abstract view
.subckt sky130_fd_sc_hd__mux4_1 A0 A1 A2 A3 S0 S1 VGND VNB VPB VPWR X
.ends

* Black-box entry subcircuit for sky130_fd_sc_hd__buf_2 abstract view
.subckt sky130_fd_sc_hd__buf_2 A VGND VNB VPB VPWR X
.ends

* Black-box entry subcircuit for sky130_fd_sc_hd__dfxtp_2 abstract view
.subckt sky130_fd_sc_hd__dfxtp_2 CLK D VGND VNB VPB VPWR Q
.ends

* Black-box entry subcircuit for sky130_fd_sc_hd__and3_1 abstract view
.subckt sky130_fd_sc_hd__and3_1 A B C VGND VNB VPB VPWR X
.ends

* Black-box entry subcircuit for sky130_fd_sc_hd__o221a_1 abstract view
.subckt sky130_fd_sc_hd__o221a_1 A1 A2 B1 B2 C1 VGND VNB VPB VPWR X
.ends

* Black-box entry subcircuit for sky130_fd_sc_hd__nor2_1 abstract view
.subckt sky130_fd_sc_hd__nor2_1 A B VGND VNB VPB VPWR Y
.ends

* Black-box entry subcircuit for sky130_fd_sc_hd__and4_1 abstract view
.subckt sky130_fd_sc_hd__and4_1 A B C D VGND VNB VPB VPWR X
.ends

* Black-box entry subcircuit for sky130_fd_sc_hd__or2b_2 abstract view
.subckt sky130_fd_sc_hd__or2b_2 A B_N VGND VNB VPB VPWR X
.ends

* Black-box entry subcircuit for sky130_fd_sc_hd__or4_2 abstract view
.subckt sky130_fd_sc_hd__or4_2 A B C D VGND VNB VPB VPWR X
.ends

* Black-box entry subcircuit for sky130_fd_sc_hd__a21oi_1 abstract view
.subckt sky130_fd_sc_hd__a21oi_1 A1 A2 B1 VGND VNB VPB VPWR Y
.ends

* Black-box entry subcircuit for sky130_fd_sc_hd__buf_6 abstract view
.subckt sky130_fd_sc_hd__buf_6 A VGND VNB VPB VPWR X
.ends

* Black-box entry subcircuit for sky130_fd_sc_hd__clkbuf_16 abstract view
.subckt sky130_fd_sc_hd__clkbuf_16 A VGND VNB VPB VPWR X
.ends

* Black-box entry subcircuit for sky130_fd_sc_hd__a21o_1 abstract view
.subckt sky130_fd_sc_hd__a21o_1 A1 A2 B1 VGND VNB VPB VPWR X
.ends

* Black-box entry subcircuit for sky130_fd_sc_hd__dfxtp_4 abstract view
.subckt sky130_fd_sc_hd__dfxtp_4 CLK D VGND VNB VPB VPWR Q
.ends

* Black-box entry subcircuit for sky130_fd_sc_hd__nand2_1 abstract view
.subckt sky130_fd_sc_hd__nand2_1 A B VGND VNB VPB VPWR Y
.ends

* Black-box entry subcircuit for sky130_fd_sc_hd__and3b_1 abstract view
.subckt sky130_fd_sc_hd__and3b_1 A_N B C VGND VNB VPB VPWR X
.ends

* Black-box entry subcircuit for sky130_fd_sc_hd__and2b_1 abstract view
.subckt sky130_fd_sc_hd__and2b_1 A_N B VGND VNB VPB VPWR X
.ends

* Black-box entry subcircuit for sky130_fd_sc_hd__and2_2 abstract view
.subckt sky130_fd_sc_hd__and2_2 A B VGND VNB VPB VPWR X
.ends

* Black-box entry subcircuit for sky130_fd_sc_hd__or4_4 abstract view
.subckt sky130_fd_sc_hd__or4_4 A B C D VGND VNB VPB VPWR X
.ends

* Black-box entry subcircuit for sky130_fd_sc_hd__mux2_2 abstract view
.subckt sky130_fd_sc_hd__mux2_2 A0 A1 S VGND VNB VPB VPWR X
.ends

* Black-box entry subcircuit for sky130_fd_sc_hd__nand2_2 abstract view
.subckt sky130_fd_sc_hd__nand2_2 A B VGND VNB VPB VPWR Y
.ends

* Black-box entry subcircuit for sky130_fd_sc_hd__and3_2 abstract view
.subckt sky130_fd_sc_hd__and3_2 A B C VGND VNB VPB VPWR X
.ends

* Black-box entry subcircuit for sky130_fd_sc_hd__a211oi_1 abstract view
.subckt sky130_fd_sc_hd__a211oi_1 A1 A2 B1 C1 VGND VNB VPB VPWR Y
.ends

* Black-box entry subcircuit for sky130_fd_sc_hd__and2_4 abstract view
.subckt sky130_fd_sc_hd__and2_4 A B VGND VNB VPB VPWR X
.ends

* Black-box entry subcircuit for sky130_fd_sc_hd__nor4_2 abstract view
.subckt sky130_fd_sc_hd__nor4_2 A B C D VGND VNB VPB VPWR Y
.ends

* Black-box entry subcircuit for sky130_fd_sc_hd__nor2_2 abstract view
.subckt sky130_fd_sc_hd__nor2_2 A B VGND VNB VPB VPWR Y
.ends

* Black-box entry subcircuit for sky130_fd_sc_hd__a21bo_1 abstract view
.subckt sky130_fd_sc_hd__a21bo_1 A1 A2 B1_N VGND VNB VPB VPWR X
.ends

* Black-box entry subcircuit for sky130_fd_sc_hd__or3_2 abstract view
.subckt sky130_fd_sc_hd__or3_2 A B C VGND VNB VPB VPWR X
.ends

* Black-box entry subcircuit for sky130_fd_sc_hd__or3b_2 abstract view
.subckt sky130_fd_sc_hd__or3b_2 A B C_N VGND VNB VPB VPWR X
.ends

* Black-box entry subcircuit for sky130_fd_sc_hd__a31o_1 abstract view
.subckt sky130_fd_sc_hd__a31o_1 A1 A2 A3 B1 VGND VNB VPB VPWR X
.ends

* Black-box entry subcircuit for sky130_fd_sc_hd__nand3_1 abstract view
.subckt sky130_fd_sc_hd__nand3_1 A B C VGND VNB VPB VPWR Y
.ends

* Black-box entry subcircuit for sky130_fd_sc_hd__clkbuf_8 abstract view
.subckt sky130_fd_sc_hd__clkbuf_8 A VGND VNB VPB VPWR X
.ends

* Black-box entry subcircuit for sky130_fd_sc_hd__nor3_4 abstract view
.subckt sky130_fd_sc_hd__nor3_4 A B C VGND VNB VPB VPWR Y
.ends

* Black-box entry subcircuit for sky130_fd_sc_hd__inv_2 abstract view
.subckt sky130_fd_sc_hd__inv_2 A VGND VNB VPB VPWR Y
.ends

* Black-box entry subcircuit for sky130_fd_sc_hd__a211o_1 abstract view
.subckt sky130_fd_sc_hd__a211o_1 A1 A2 B1 C1 VGND VNB VPB VPWR X
.ends

* Black-box entry subcircuit for sky130_fd_sc_hd__buf_8 abstract view
.subckt sky130_fd_sc_hd__buf_8 A VGND VNB VPB VPWR X
.ends

* Black-box entry subcircuit for sky130_fd_sc_hd__or3_4 abstract view
.subckt sky130_fd_sc_hd__or3_4 A B C VGND VNB VPB VPWR X
.ends

* Black-box entry subcircuit for sky130_fd_sc_hd__nor3b_1 abstract view
.subckt sky130_fd_sc_hd__nor3b_1 A B C_N VGND VNB VPB VPWR Y
.ends

* Black-box entry subcircuit for sky130_fd_sc_hd__and4_2 abstract view
.subckt sky130_fd_sc_hd__and4_2 A B C D VGND VNB VPB VPWR X
.ends

* Black-box entry subcircuit for sky130_fd_sc_hd__mux2_4 abstract view
.subckt sky130_fd_sc_hd__mux2_4 A0 A1 S VGND VNB VPB VPWR X
.ends

* Black-box entry subcircuit for sky130_fd_sc_hd__o21a_1 abstract view
.subckt sky130_fd_sc_hd__o21a_1 A1 A2 B1 VGND VNB VPB VPWR X
.ends

* Black-box entry subcircuit for sky130_fd_sc_hd__nor3b_2 abstract view
.subckt sky130_fd_sc_hd__nor3b_2 A B C_N VGND VNB VPB VPWR Y
.ends

* Black-box entry subcircuit for sky130_fd_sc_hd__a21boi_1 abstract view
.subckt sky130_fd_sc_hd__a21boi_1 A1 A2 B1_N VGND VNB VPB VPWR Y
.ends

* Black-box entry subcircuit for sky130_fd_sc_hd__nand4_1 abstract view
.subckt sky130_fd_sc_hd__nand4_1 A B C D VGND VNB VPB VPWR Y
.ends

* Black-box entry subcircuit for sky130_fd_sc_hd__nor3_2 abstract view
.subckt sky130_fd_sc_hd__nor3_2 A B C VGND VNB VPB VPWR Y
.ends

* Black-box entry subcircuit for sky130_fd_sc_hd__a31oi_1 abstract view
.subckt sky130_fd_sc_hd__a31oi_1 A1 A2 A3 B1 VGND VNB VPB VPWR Y
.ends

* Black-box entry subcircuit for sky130_fd_sc_hd__or4b_4 abstract view
.subckt sky130_fd_sc_hd__or4b_4 A B C D_N VGND VNB VPB VPWR X
.ends

* Black-box entry subcircuit for sky130_fd_sc_hd__nor2_4 abstract view
.subckt sky130_fd_sc_hd__nor2_4 A B VGND VNB VPB VPWR Y
.ends

* Black-box entry subcircuit for sky130_fd_sc_hd__or3b_1 abstract view
.subckt sky130_fd_sc_hd__or3b_1 A B C_N VGND VNB VPB VPWR X
.ends

* Black-box entry subcircuit for sky130_fd_sc_hd__or2_2 abstract view
.subckt sky130_fd_sc_hd__or2_2 A B VGND VNB VPB VPWR X
.ends

* Black-box entry subcircuit for sky130_fd_sc_hd__or4b_2 abstract view
.subckt sky130_fd_sc_hd__or4b_2 A B C D_N VGND VNB VPB VPWR X
.ends

* Black-box entry subcircuit for sky130_fd_sc_hd__clkdlybuf4s25_1 abstract view
.subckt sky130_fd_sc_hd__clkdlybuf4s25_1 A VGND VNB VPB VPWR X
.ends

* Black-box entry subcircuit for sky130_fd_sc_hd__nand2_4 abstract view
.subckt sky130_fd_sc_hd__nand2_4 A B VGND VNB VPB VPWR Y
.ends

* Black-box entry subcircuit for sky130_fd_sc_hd__clkdlybuf4s50_1 abstract view
.subckt sky130_fd_sc_hd__clkdlybuf4s50_1 A VGND VNB VPB VPWR X
.ends

* Black-box entry subcircuit for sky130_fd_sc_hd__or4b_1 abstract view
.subckt sky130_fd_sc_hd__or4b_1 A B C D_N VGND VNB VPB VPWR X
.ends

* Black-box entry subcircuit for sky130_fd_sc_hd__o2111a_1 abstract view
.subckt sky130_fd_sc_hd__o2111a_1 A1 A2 B1 C1 D1 VGND VNB VPB VPWR X
.ends

* Black-box entry subcircuit for sky130_fd_sc_hd__clkinv_2 abstract view
.subckt sky130_fd_sc_hd__clkinv_2 A VGND VNB VPB VPWR Y
.ends

* Black-box entry subcircuit for sky130_fd_sc_hd__a221o_1 abstract view
.subckt sky130_fd_sc_hd__a221o_1 A1 A2 B1 B2 C1 VGND VNB VPB VPWR X
.ends

* Black-box entry subcircuit for sky130_fd_sc_hd__or3b_4 abstract view
.subckt sky130_fd_sc_hd__or3b_4 A B C_N VGND VNB VPB VPWR X
.ends

* Black-box entry subcircuit for sky130_fd_sc_hd__or2_4 abstract view
.subckt sky130_fd_sc_hd__or2_4 A B VGND VNB VPB VPWR X
.ends

* Black-box entry subcircuit for sky130_fd_sc_hd__and2b_2 abstract view
.subckt sky130_fd_sc_hd__and2b_2 A_N B VGND VNB VPB VPWR X
.ends

.subckt PWM clk peripheralBus_address[0] peripheralBus_address[10] peripheralBus_address[11]
+ peripheralBus_address[12] peripheralBus_address[13] peripheralBus_address[14] peripheralBus_address[15]
+ peripheralBus_address[16] peripheralBus_address[17] peripheralBus_address[18] peripheralBus_address[19]
+ peripheralBus_address[1] peripheralBus_address[20] peripheralBus_address[21] peripheralBus_address[22]
+ peripheralBus_address[23] peripheralBus_address[2] peripheralBus_address[3] peripheralBus_address[4]
+ peripheralBus_address[5] peripheralBus_address[6] peripheralBus_address[7] peripheralBus_address[8]
+ peripheralBus_address[9] peripheralBus_busy peripheralBus_data[0] peripheralBus_data[10]
+ peripheralBus_data[11] peripheralBus_data[12] peripheralBus_data[13] peripheralBus_data[14]
+ peripheralBus_data[15] peripheralBus_data[16] peripheralBus_data[17] peripheralBus_data[18]
+ peripheralBus_data[19] peripheralBus_data[1] peripheralBus_data[20] peripheralBus_data[21]
+ peripheralBus_data[22] peripheralBus_data[23] peripheralBus_data[24] peripheralBus_data[25]
+ peripheralBus_data[26] peripheralBus_data[27] peripheralBus_data[28] peripheralBus_data[29]
+ peripheralBus_data[2] peripheralBus_data[30] peripheralBus_data[31] peripheralBus_data[3]
+ peripheralBus_data[4] peripheralBus_data[5] peripheralBus_data[6] peripheralBus_data[7]
+ peripheralBus_data[8] peripheralBus_data[9] peripheralBus_oe peripheralBus_we pwm_en[0]
+ pwm_en[10] pwm_en[11] pwm_en[12] pwm_en[13] pwm_en[14] pwm_en[15] pwm_en[1] pwm_en[2]
+ pwm_en[3] pwm_en[4] pwm_en[5] pwm_en[6] pwm_en[7] pwm_en[8] pwm_en[9] pwm_out[0]
+ pwm_out[10] pwm_out[11] pwm_out[12] pwm_out[13] pwm_out[14] pwm_out[15] pwm_out[1]
+ pwm_out[2] pwm_out[3] pwm_out[4] pwm_out[5] pwm_out[6] pwm_out[7] pwm_out[8] pwm_out[9]
+ rst vccd1 vssd1
XFILLER_67_531 vssd1 vssd1 vccd1 vccd1 sky130_fd_sc_hd__decap_8
XANTENNA__10669__A1 _10665_/X vssd1 vssd1 vccd1 vccd1 sky130_fd_sc_hd__diode_2
X_09671_ _09671_/A vssd1 vssd1 vccd1 vccd1 _09686_/A sky130_fd_sc_hd__dlymetal6s2s_1
X_06883_ _06883_/A vssd1 vssd1 vccd1 vccd1 _06883_/X sky130_fd_sc_hd__clkbuf_1
X_13206__362 vssd1 vssd1 vccd1 vccd1 _13206__362/HI _13829_/A sky130_fd_sc_hd__conb_1
XFILLER_36_19 vssd1 vssd1 vccd1 vccd1 sky130_fd_sc_hd__decap_8
X_08622_ _09397_/C vssd1 vssd1 vccd1 vccd1 _13553_/A sky130_fd_sc_hd__buf_4
XFILLER_55_748 vssd1 vssd1 vccd1 vccd1 sky130_fd_sc_hd__decap_4
XFILLER_94_394 vssd1 vssd1 vccd1 vccd1 sky130_fd_sc_hd__fill_1
XFILLER_82_567 vssd1 vssd1 vccd1 vccd1 sky130_fd_sc_hd__decap_4
X_08553_ _13584_/A vssd1 vssd1 vccd1 vccd1 _08553_/X sky130_fd_sc_hd__clkbuf_4
XFILLER_42_409 vssd1 vssd1 vccd1 vccd1 sky130_fd_sc_hd__decap_4
XFILLER_63_770 vssd1 vssd1 vccd1 vccd1 sky130_fd_sc_hd__decap_8
XFILLER_23_612 vssd1 vssd1 vccd1 vccd1 sky130_fd_sc_hd__decap_4
X_07504_ _07504_/A _07504_/B _07510_/C vssd1 vssd1 vccd1 vccd1 _07505_/A sky130_fd_sc_hd__or3_1
X_08484_ _08480_/X _08483_/X _08498_/S vssd1 vssd1 vccd1 vccd1 _11705_/C sky130_fd_sc_hd__mux2_1
XFILLER_50_431 vssd1 vssd1 vccd1 vccd1 sky130_fd_sc_hd__decap_8
XFILLER_52_29 vssd1 vssd1 vccd1 vccd1 sky130_fd_sc_hd__fill_2
XFILLER_22_133 vssd1 vssd1 vccd1 vccd1 sky130_fd_sc_hd__decap_6
X_07435_ _07442_/A _07435_/B vssd1 vssd1 vccd1 vccd1 _07436_/A sky130_fd_sc_hd__or2_1
XFILLER_23_667 vssd1 vssd1 vccd1 vccd1 sky130_fd_sc_hd__decap_4
XFILLER_149_831 vssd1 vssd1 vccd1 vccd1 sky130_fd_sc_hd__decap_8
XFILLER_11_829 vssd1 vssd1 vccd1 vccd1 sky130_fd_sc_hd__decap_4
XFILLER_10_306 vssd1 vssd1 vccd1 vccd1 sky130_fd_sc_hd__fill_2
XFILLER_50_475 vssd1 vssd1 vccd1 vccd1 sky130_fd_sc_hd__fill_1
XFILLER_10_317 vssd1 vssd1 vccd1 vccd1 sky130_fd_sc_hd__decap_4
X_07366_ _07393_/A vssd1 vssd1 vccd1 vccd1 _07377_/B sky130_fd_sc_hd__dlymetal6s2s_1
XANTENNA__10693__B _11412_/C vssd1 vssd1 vccd1 vccd1 sky130_fd_sc_hd__diode_2
X_09105_ input27/X vssd1 vssd1 vccd1 vccd1 _11503_/B sky130_fd_sc_hd__inv_6
X_06317_ _06317_/A vssd1 vssd1 vccd1 vccd1 _06317_/X sky130_fd_sc_hd__clkbuf_1
XFILLER_148_385 vssd1 vssd1 vccd1 vccd1 sky130_fd_sc_hd__fill_1
X_07297_ _07297_/A vssd1 vssd1 vccd1 vccd1 _07297_/X sky130_fd_sc_hd__clkbuf_1
XFILLER_136_536 vssd1 vssd1 vccd1 vccd1 sky130_fd_sc_hd__decap_4
X_09036_ _11677_/B _11677_/A _11676_/B _11676_/A _08941_/X _08942_/X vssd1 vssd1 vccd1
+ vccd1 _09036_/X sky130_fd_sc_hd__mux4_2
XFILLER_163_388 vssd1 vssd1 vccd1 vccd1 sky130_fd_sc_hd__decap_4
XFILLER_117_783 vssd1 vssd1 vccd1 vccd1 sky130_fd_sc_hd__fill_1
XFILLER_104_411 vssd1 vssd1 vccd1 vccd1 sky130_fd_sc_hd__decap_8
XFILLER_2_538 vssd1 vssd1 vccd1 vccd1 sky130_fd_sc_hd__decap_4
XFILLER_132_742 vssd1 vssd1 vccd1 vccd1 sky130_fd_sc_hd__decap_6
XFILLER_78_807 vssd1 vssd1 vccd1 vccd1 sky130_fd_sc_hd__decap_4
XFILLER_78_818 vssd1 vssd1 vccd1 vccd1 sky130_fd_sc_hd__decap_4
XFILLER_89_144 vssd1 vssd1 vccd1 vccd1 sky130_fd_sc_hd__decap_4
XFILLER_77_37 vssd1 vssd1 vccd1 vccd1 sky130_fd_sc_hd__decap_4
XFILLER_77_317 vssd1 vssd1 vccd1 vccd1 sky130_fd_sc_hd__decap_4
XFILLER_77_328 vssd1 vssd1 vccd1 vccd1 sky130_fd_sc_hd__fill_1
X_09938_ _14035_/Z _08695_/X _09953_/S vssd1 vssd1 vccd1 vccd1 _09939_/B sky130_fd_sc_hd__mux2_1
XANTENNA__10109__B1 _10123_/A vssd1 vssd1 vccd1 vccd1 sky130_fd_sc_hd__diode_2
XANTENNA__08948__S1 _08947_/X vssd1 vssd1 vccd1 vccd1 sky130_fd_sc_hd__diode_2
X_09869_ _09869_/A _09869_/B _09869_/C vssd1 vssd1 vccd1 vccd1 _09869_/Y sky130_fd_sc_hd__nor3_1
XFILLER_58_575 vssd1 vssd1 vccd1 vccd1 sky130_fd_sc_hd__decap_4
X_11900_ _11900_/A vssd1 vssd1 vccd1 vccd1 _12902_/D sky130_fd_sc_hd__clkbuf_1
XANTENNA__09722__B _13557_/A vssd1 vssd1 vccd1 vccd1 sky130_fd_sc_hd__diode_2
XFILLER_45_214 vssd1 vssd1 vccd1 vccd1 sky130_fd_sc_hd__decap_4
XTAP_2501 vssd1 vccd1 sky130_fd_sc_hd__tapvpwrvgnd_1
XFILLER_45_225 vssd1 vssd1 vccd1 vccd1 sky130_fd_sc_hd__fill_2
XFILLER_73_534 vssd1 vssd1 vccd1 vccd1 sky130_fd_sc_hd__fill_1
X_12880_ _12904_/CLK _12880_/D vssd1 vssd1 vccd1 vccd1 _14008_/A sky130_fd_sc_hd__dfxtp_1
XTAP_2512 vssd1 vccd1 sky130_fd_sc_hd__tapvpwrvgnd_1
XTAP_2523 vssd1 vccd1 sky130_fd_sc_hd__tapvpwrvgnd_1
XTAP_2534 vssd1 vccd1 sky130_fd_sc_hd__tapvpwrvgnd_1
XFILLER_73_567 vssd1 vssd1 vccd1 vccd1 sky130_fd_sc_hd__decap_4
X_11831_ _11834_/A _11831_/B vssd1 vssd1 vccd1 vccd1 _11832_/A sky130_fd_sc_hd__and2_1
XTAP_2545 vssd1 vccd1 sky130_fd_sc_hd__tapvpwrvgnd_1
XTAP_1800 vssd1 vccd1 sky130_fd_sc_hd__tapvpwrvgnd_1
XTAP_2556 vssd1 vccd1 sky130_fd_sc_hd__tapvpwrvgnd_1
XTAP_1811 vssd1 vccd1 sky130_fd_sc_hd__tapvpwrvgnd_1
XTAP_1822 vssd1 vccd1 sky130_fd_sc_hd__tapvpwrvgnd_1
XTAP_2567 vssd1 vccd1 sky130_fd_sc_hd__tapvpwrvgnd_1
XFILLER_26_472 vssd1 vssd1 vccd1 vccd1 sky130_fd_sc_hd__decap_4
XFILLER_14_612 vssd1 vssd1 vccd1 vccd1 sky130_fd_sc_hd__decap_3
XTAP_2578 vssd1 vccd1 sky130_fd_sc_hd__tapvpwrvgnd_1
XTAP_1833 vssd1 vccd1 sky130_fd_sc_hd__tapvpwrvgnd_1
XTAP_2589 vssd1 vccd1 sky130_fd_sc_hd__tapvpwrvgnd_1
X_11762_ _11762_/A vssd1 vssd1 vccd1 vccd1 _12868_/D sky130_fd_sc_hd__clkbuf_1
XTAP_1844 vssd1 vccd1 sky130_fd_sc_hd__tapvpwrvgnd_1
XFILLER_26_96 vssd1 vssd1 vccd1 vccd1 sky130_fd_sc_hd__decap_4
XFILLER_14_645 vssd1 vssd1 vccd1 vccd1 sky130_fd_sc_hd__decap_8
XFILLER_13_111 vssd1 vssd1 vccd1 vccd1 sky130_fd_sc_hd__fill_1
XTAP_1855 vssd1 vccd1 sky130_fd_sc_hd__tapvpwrvgnd_1
XTAP_1866 vssd1 vccd1 sky130_fd_sc_hd__tapvpwrvgnd_1
X_13501_ _13501_/A _07620_/X vssd1 vssd1 vccd1 vccd1 _14109_/Z sky130_fd_sc_hd__ebufn_8
XTAP_1877 vssd1 vccd1 sky130_fd_sc_hd__tapvpwrvgnd_1
X_10713_ _13973_/Z _13781_/A _10723_/S vssd1 vssd1 vccd1 vccd1 _10714_/B sky130_fd_sc_hd__mux2_1
XTAP_1888 vssd1 vccd1 sky130_fd_sc_hd__tapvpwrvgnd_1
X_11693_ _11695_/B _11695_/C _11569_/X vssd1 vssd1 vccd1 vccd1 _11694_/B sky130_fd_sc_hd__o21ai_1
XTAP_1899 vssd1 vccd1 sky130_fd_sc_hd__tapvpwrvgnd_1
XFILLER_13_166 vssd1 vssd1 vccd1 vccd1 sky130_fd_sc_hd__fill_2
X_13432_ _13432_/A _07800_/X vssd1 vssd1 vccd1 vccd1 _14104_/Z sky130_fd_sc_hd__ebufn_8
X_10644_ _10385_/X _10638_/X _10643_/X _10550_/X vssd1 vssd1 vccd1 vccd1 _12585_/D
+ sky130_fd_sc_hd__o211a_1
XANTENNA__08354__A _08358_/A vssd1 vssd1 vccd1 vccd1 sky130_fd_sc_hd__diode_2
XFILLER_127_503 vssd1 vssd1 vccd1 vccd1 sky130_fd_sc_hd__fill_1
XFILLER_6_811 vssd1 vssd1 vccd1 vccd1 sky130_fd_sc_hd__fill_1
XFILLER_155_834 vssd1 vssd1 vccd1 vccd1 sky130_fd_sc_hd__decap_6
X_13363_ _13363_/A _08286_/X vssd1 vssd1 vccd1 vccd1 _14067_/Z sky130_fd_sc_hd__ebufn_8
X_10575_ _13716_/A _12572_/Q _10584_/S vssd1 vssd1 vccd1 vccd1 _10576_/B sky130_fd_sc_hd__mux2_1
XFILLER_158_73 vssd1 vssd1 vccd1 vccd1 sky130_fd_sc_hd__decap_4
XFILLER_154_311 vssd1 vssd1 vccd1 vccd1 sky130_fd_sc_hd__decap_4
X_12314_ _12320_/CLK _12314_/D vssd1 vssd1 vccd1 vccd1 _12314_/Q sky130_fd_sc_hd__dfxtp_1
XFILLER_5_343 vssd1 vssd1 vccd1 vccd1 sky130_fd_sc_hd__decap_12
XFILLER_142_506 vssd1 vssd1 vccd1 vccd1 sky130_fd_sc_hd__decap_4
X_13149__305 vssd1 vssd1 vccd1 vccd1 _13149__305/HI _13706_/A sky130_fd_sc_hd__conb_1
XFILLER_142_528 vssd1 vssd1 vccd1 vccd1 sky130_fd_sc_hd__decap_4
XANTENNA__09202__A1 _09379_/A vssd1 vssd1 vccd1 vccd1 sky130_fd_sc_hd__diode_2
X_12245_ _12251_/CLK _12245_/D vssd1 vssd1 vccd1 vccd1 _12245_/Q sky130_fd_sc_hd__dfxtp_1
XANTENNA_repeater127_A _13979_/Z vssd1 vssd1 vccd1 vccd1 sky130_fd_sc_hd__diode_2
XANTENNA__09185__A _13626_/Z vssd1 vssd1 vccd1 vccd1 sky130_fd_sc_hd__diode_2
X_12176_ _12176_/A _12176_/B _12176_/C _12176_/D vssd1 vssd1 vccd1 vccd1 _12177_/C
+ sky130_fd_sc_hd__or4_1
XFILLER_69_818 vssd1 vssd1 vccd1 vccd1 sky130_fd_sc_hd__fill_1
XFILLER_96_604 vssd1 vssd1 vccd1 vccd1 sky130_fd_sc_hd__fill_1
XFILLER_122_241 vssd1 vssd1 vccd1 vccd1 sky130_fd_sc_hd__decap_4
XFILLER_150_572 vssd1 vssd1 vccd1 vccd1 sky130_fd_sc_hd__fill_1
X_11127_ _12703_/Q _13944_/A vssd1 vssd1 vccd1 vccd1 _11127_/Y sky130_fd_sc_hd__xnor2_1
XFILLER_49_520 vssd1 vssd1 vccd1 vccd1 sky130_fd_sc_hd__decap_4
XFILLER_110_425 vssd1 vssd1 vccd1 vccd1 sky130_fd_sc_hd__fill_1
X_11058_ _10408_/X _11055_/X _11057_/X _11053_/X vssd1 vssd1 vccd1 vccd1 _12688_/D
+ sky130_fd_sc_hd__o211a_1
XANTENNA_output56_A _13569_/A vssd1 vssd1 vccd1 vccd1 sky130_fd_sc_hd__diode_2
XANTENNA__09061__S0 _08941_/X vssd1 vssd1 vccd1 vccd1 sky130_fd_sc_hd__diode_2
X_10009_ _10077_/A vssd1 vssd1 vccd1 vccd1 _10146_/A sky130_fd_sc_hd__clkbuf_4
XFILLER_24_409 vssd1 vssd1 vccd1 vccd1 sky130_fd_sc_hd__decap_4
XFILLER_17_461 vssd1 vssd1 vccd1 vccd1 sky130_fd_sc_hd__decap_4
XANTENNA__08248__B _08248_/B vssd1 vssd1 vccd1 vccd1 sky130_fd_sc_hd__diode_2
XFILLER_91_375 vssd1 vssd1 vccd1 vccd1 sky130_fd_sc_hd__decap_6
XFILLER_91_386 vssd1 vssd1 vccd1 vccd1 sky130_fd_sc_hd__decap_6
XFILLER_17_483 vssd1 vssd1 vccd1 vccd1 sky130_fd_sc_hd__decap_8
XFILLER_91_397 vssd1 vssd1 vccd1 vccd1 sky130_fd_sc_hd__decap_4
XFILLER_149_116 vssd1 vssd1 vccd1 vccd1 sky130_fd_sc_hd__decap_4
XFILLER_60_773 vssd1 vssd1 vccd1 vccd1 sky130_fd_sc_hd__decap_4
XFILLER_32_475 vssd1 vssd1 vccd1 vccd1 sky130_fd_sc_hd__fill_1
X_07220_ _07220_/A _07231_/B _07228_/C vssd1 vssd1 vccd1 vccd1 _07221_/A sky130_fd_sc_hd__or3_1
Xrepeater60 _14072_/Z vssd1 vssd1 vccd1 vccd1 _13976_/Z sky130_fd_sc_hd__buf_12
Xrepeater71 peripheralBus_data[6] vssd1 vssd1 vccd1 vccd1 _14037_/Z sky130_fd_sc_hd__buf_12
Xrepeater82 peripheralBus_data[31] vssd1 vssd1 vccd1 vccd1 _14126_/Z sky130_fd_sc_hd__buf_12
XFILLER_158_672 vssd1 vssd1 vccd1 vccd1 sky130_fd_sc_hd__decap_4
Xrepeater93 peripheralBus_data[27] vssd1 vssd1 vccd1 vccd1 _13994_/Z sky130_fd_sc_hd__buf_12
XFILLER_164_119 vssd1 vssd1 vccd1 vccd1 sky130_fd_sc_hd__fill_1
X_07151_ _07205_/A vssd1 vssd1 vccd1 vccd1 _07163_/B sky130_fd_sc_hd__clkbuf_1
XANTENNA__11402__B _13935_/A vssd1 vssd1 vccd1 vccd1 sky130_fd_sc_hd__diode_2
XFILLER_157_160 vssd1 vssd1 vccd1 vccd1 sky130_fd_sc_hd__decap_8
XFILLER_157_171 vssd1 vssd1 vccd1 vccd1 sky130_fd_sc_hd__decap_4
XFILLER_8_192 vssd1 vssd1 vccd1 vccd1 sky130_fd_sc_hd__decap_4
X_07082_ _07533_/A vssd1 vssd1 vccd1 vccd1 _07137_/A sky130_fd_sc_hd__clkbuf_2
XFILLER_145_366 vssd1 vssd1 vccd1 vccd1 sky130_fd_sc_hd__fill_1
XFILLER_145_388 vssd1 vssd1 vccd1 vccd1 sky130_fd_sc_hd__decap_4
XFILLER_160_325 vssd1 vssd1 vccd1 vccd1 sky130_fd_sc_hd__decap_6
XFILLER_114_731 vssd1 vssd1 vccd1 vccd1 sky130_fd_sc_hd__decap_4
XFILLER_113_241 vssd1 vssd1 vccd1 vccd1 sky130_fd_sc_hd__decap_4
XFILLER_87_615 vssd1 vssd1 vccd1 vccd1 sky130_fd_sc_hd__fill_1
XFILLER_141_561 vssd1 vssd1 vccd1 vccd1 sky130_fd_sc_hd__decap_4
XFILLER_99_486 vssd1 vssd1 vccd1 vccd1 sky130_fd_sc_hd__fill_1
XFILLER_113_263 vssd1 vssd1 vccd1 vccd1 sky130_fd_sc_hd__decap_4
XFILLER_86_114 vssd1 vssd1 vccd1 vccd1 sky130_fd_sc_hd__decap_4
XFILLER_113_285 vssd1 vssd1 vccd1 vccd1 sky130_fd_sc_hd__decap_4
X_07984_ _07984_/A vssd1 vssd1 vccd1 vccd1 _07984_/X sky130_fd_sc_hd__clkbuf_1
XFILLER_86_136 vssd1 vssd1 vccd1 vccd1 sky130_fd_sc_hd__decap_4
X_09723_ _12344_/Q _13554_/A vssd1 vssd1 vccd1 vccd1 _09725_/C sky130_fd_sc_hd__xor2_1
X_06935_ _06935_/A vssd1 vssd1 vccd1 vccd1 _06935_/X sky130_fd_sc_hd__clkbuf_1
XANTENNA__09052__S0 _08911_/X vssd1 vssd1 vccd1 vccd1 sky130_fd_sc_hd__diode_2
XFILLER_95_681 vssd1 vssd1 vccd1 vccd1 sky130_fd_sc_hd__decap_4
XFILLER_55_523 vssd1 vssd1 vccd1 vccd1 sky130_fd_sc_hd__decap_4
X_09654_ _13469_/A _09640_/X _09653_/X _09649_/X vssd1 vssd1 vccd1 vccd1 _12339_/D
+ sky130_fd_sc_hd__o211a_1
XFILLER_27_225 vssd1 vssd1 vccd1 vccd1 sky130_fd_sc_hd__decap_4
XFILLER_55_534 vssd1 vssd1 vccd1 vccd1 sky130_fd_sc_hd__fill_1
X_06866_ _06877_/A _06870_/B _06870_/C vssd1 vssd1 vccd1 vccd1 _06867_/A sky130_fd_sc_hd__or3_1
XANTENNA__10688__B _11924_/B vssd1 vssd1 vccd1 vccd1 sky130_fd_sc_hd__diode_2
XFILLER_55_556 vssd1 vssd1 vccd1 vccd1 sky130_fd_sc_hd__decap_4
X_08605_ _12427_/Q vssd1 vssd1 vccd1 vccd1 _09997_/B sky130_fd_sc_hd__dlymetal6s2s_1
XFILLER_43_718 vssd1 vssd1 vccd1 vccd1 sky130_fd_sc_hd__decap_4
XFILLER_103_57 vssd1 vssd1 vccd1 vccd1 sky130_fd_sc_hd__decap_4
X_06797_ _06801_/A _06806_/B _06806_/C vssd1 vssd1 vccd1 vccd1 _06798_/A sky130_fd_sc_hd__or3_1
X_09585_ _11443_/A vssd1 vssd1 vccd1 vccd1 _12200_/A sky130_fd_sc_hd__clkbuf_4
XFILLER_43_729 vssd1 vssd1 vccd1 vccd1 sky130_fd_sc_hd__fill_2
XTAP_1107 vssd1 vccd1 sky130_fd_sc_hd__tapvpwrvgnd_1
XTAP_1118 vssd1 vccd1 sky130_fd_sc_hd__tapvpwrvgnd_1
XFILLER_82_386 vssd1 vssd1 vccd1 vccd1 sky130_fd_sc_hd__decap_8
XTAP_1129 vssd1 vccd1 sky130_fd_sc_hd__tapvpwrvgnd_1
XFILLER_63_39 vssd1 vssd1 vccd1 vccd1 sky130_fd_sc_hd__decap_8
X_08536_ _08423_/X _08428_/X _08427_/X _08430_/X _08470_/X _09152_/A vssd1 vssd1 vccd1
+ vccd1 _08536_/X sky130_fd_sc_hd__mux4_1
X_08467_ _08479_/A vssd1 vssd1 vccd1 vccd1 _08467_/X sky130_fd_sc_hd__buf_2
XFILLER_11_604 vssd1 vssd1 vccd1 vccd1 sky130_fd_sc_hd__fill_2
XFILLER_11_615 vssd1 vssd1 vccd1 vccd1 sky130_fd_sc_hd__fill_1
XFILLER_50_283 vssd1 vssd1 vccd1 vccd1 sky130_fd_sc_hd__decap_4
X_07418_ _07418_/A vssd1 vssd1 vccd1 vccd1 _07418_/X sky130_fd_sc_hd__clkbuf_1
X_08398_ _12233_/Q _12234_/Q _12235_/Q _12236_/Q _08396_/X _08397_/X vssd1 vssd1 vccd1
+ vccd1 _08398_/X sky130_fd_sc_hd__mux4_1
XFILLER_10_136 vssd1 vssd1 vccd1 vccd1 sky130_fd_sc_hd__decap_4
XANTENNA_clkbuf_leaf_93_clk_A clkbuf_4_4_0_clk/X vssd1 vssd1 vccd1 vccd1 sky130_fd_sc_hd__diode_2
X_13334__490 vssd1 vssd1 vccd1 vccd1 _13334__490/HI _14087_/A sky130_fd_sc_hd__conb_1
XFILLER_109_503 vssd1 vssd1 vccd1 vccd1 sky130_fd_sc_hd__fill_1
XFILLER_137_812 vssd1 vssd1 vccd1 vccd1 sky130_fd_sc_hd__decap_4
XFILLER_12_21 vssd1 vssd1 vccd1 vccd1 sky130_fd_sc_hd__decap_6
X_07349_ _09875_/B vssd1 vssd1 vccd1 vccd1 _07403_/A sky130_fd_sc_hd__clkbuf_2
XANTENNA__08866__S0 _08733_/X vssd1 vssd1 vccd1 vccd1 sky130_fd_sc_hd__diode_2
XFILLER_12_43 vssd1 vssd1 vccd1 vccd1 sky130_fd_sc_hd__fill_1
XFILLER_128_10 vssd1 vssd1 vccd1 vccd1 sky130_fd_sc_hd__decap_4
XANTENNA__06406__B _06412_/B vssd1 vssd1 vccd1 vccd1 sky130_fd_sc_hd__diode_2
XFILLER_163_130 vssd1 vssd1 vccd1 vccd1 sky130_fd_sc_hd__decap_8
X_10360_ _12504_/Q _13746_/A vssd1 vssd1 vccd1 vccd1 _10362_/C sky130_fd_sc_hd__xor2_1
XFILLER_136_344 vssd1 vssd1 vccd1 vccd1 sky130_fd_sc_hd__fill_1
XFILLER_136_355 vssd1 vssd1 vccd1 vccd1 sky130_fd_sc_hd__decap_8
XFILLER_124_506 vssd1 vssd1 vccd1 vccd1 sky130_fd_sc_hd__decap_4
XFILLER_128_65 vssd1 vssd1 vccd1 vccd1 sky130_fd_sc_hd__decap_4
XFILLER_163_174 vssd1 vssd1 vccd1 vccd1 sky130_fd_sc_hd__decap_4
X_09019_ _08948_/X _08951_/X _08950_/X _08955_/X _09057_/A _09013_/X vssd1 vssd1 vccd1
+ vccd1 _09019_/X sky130_fd_sc_hd__mux4_1
XANTENNA__09717__B _13552_/A vssd1 vssd1 vccd1 vccd1 sky130_fd_sc_hd__diode_2
XFILLER_3_836 vssd1 vssd1 vccd1 vccd1 sky130_fd_sc_hd__decap_4
X_10291_ _13629_/A _10291_/B vssd1 vssd1 vccd1 vccd1 _10291_/X sky130_fd_sc_hd__or2_1
XFILLER_136_399 vssd1 vssd1 vccd1 vccd1 sky130_fd_sc_hd__decap_4
XFILLER_117_591 vssd1 vssd1 vccd1 vccd1 sky130_fd_sc_hd__decap_4
X_12030_ _12030_/A _12030_/B vssd1 vssd1 vccd1 vccd1 _12031_/A sky130_fd_sc_hd__and2_1
XFILLER_105_753 vssd1 vssd1 vccd1 vccd1 sky130_fd_sc_hd__decap_4
XFILLER_120_701 vssd1 vssd1 vccd1 vccd1 sky130_fd_sc_hd__decap_3
XFILLER_144_42 vssd1 vssd1 vccd1 vccd1 sky130_fd_sc_hd__fill_1
XFILLER_144_64 vssd1 vssd1 vccd1 vccd1 sky130_fd_sc_hd__decap_4
XANTENNA__10750__B1 _10749_/X vssd1 vssd1 vccd1 vccd1 sky130_fd_sc_hd__diode_2
XFILLER_104_296 vssd1 vssd1 vccd1 vccd1 sky130_fd_sc_hd__decap_4
XANTENNA_clkbuf_leaf_31_clk_A _12759_/CLK vssd1 vssd1 vccd1 vccd1 sky130_fd_sc_hd__diode_2
XFILLER_77_147 vssd1 vssd1 vccd1 vccd1 sky130_fd_sc_hd__decap_6
XFILLER_144_97 vssd1 vssd1 vccd1 vccd1 sky130_fd_sc_hd__decap_4
XFILLER_19_704 vssd1 vssd1 vccd1 vccd1 sky130_fd_sc_hd__fill_1