* NGSPICE file created from SPI.ext - technology: sky130A

* Black-box entry subcircuit for sky130_fd_sc_hd__decap_8 abstract view
.subckt sky130_fd_sc_hd__decap_8 VGND VNB VPB VPWR
.ends

* Black-box entry subcircuit for sky130_fd_sc_hd__fill_2 abstract view
.subckt sky130_fd_sc_hd__fill_2 VGND VNB VPB VPWR
.ends

* Black-box entry subcircuit for sky130_fd_sc_hd__tapvpwrvgnd_1 abstract view
.subckt sky130_fd_sc_hd__tapvpwrvgnd_1 VGND VPWR
.ends

* Black-box entry subcircuit for sky130_fd_sc_hd__diode_2 abstract view
.subckt sky130_fd_sc_hd__diode_2 DIODE VGND VNB VPB VPWR
.ends

* Black-box entry subcircuit for sky130_fd_sc_hd__decap_12 abstract view
.subckt sky130_fd_sc_hd__decap_12 VGND VNB VPB VPWR
.ends

* Black-box entry subcircuit for sky130_fd_sc_hd__fill_1 abstract view
.subckt sky130_fd_sc_hd__fill_1 VGND VNB VPB VPWR
.ends

* Black-box entry subcircuit for sky130_fd_sc_hd__conb_1 abstract view
.subckt sky130_fd_sc_hd__conb_1 VGND VNB VPB VPWR HI LO
.ends

* Black-box entry subcircuit for sky130_fd_sc_hd__decap_4 abstract view
.subckt sky130_fd_sc_hd__decap_4 VGND VNB VPB VPWR
.ends

* Black-box entry subcircuit for sky130_fd_sc_hd__decap_6 abstract view
.subckt sky130_fd_sc_hd__decap_6 VGND VNB VPB VPWR
.ends

* Black-box entry subcircuit for sky130_fd_sc_hd__clkbuf_1 abstract view
.subckt sky130_fd_sc_hd__clkbuf_1 A VGND VNB VPB VPWR X
.ends

* Black-box entry subcircuit for sky130_fd_sc_hd__or4_1 abstract view
.subckt sky130_fd_sc_hd__or4_1 A B C D VGND VNB VPB VPWR X
.ends

* Black-box entry subcircuit for sky130_fd_sc_hd__ebufn_8 abstract view
.subckt sky130_fd_sc_hd__ebufn_8 A TE_B VGND VNB VPB VPWR Z
.ends

* Black-box entry subcircuit for sky130_fd_sc_hd__dfxtp_1 abstract view
.subckt sky130_fd_sc_hd__dfxtp_1 CLK D VGND VNB VPB VPWR Q
.ends

* Black-box entry subcircuit for sky130_fd_sc_hd__dlymetal6s2s_1 abstract view
.subckt sky130_fd_sc_hd__dlymetal6s2s_1 A VGND VNB VPB VPWR X
.ends

* Black-box entry subcircuit for sky130_fd_sc_hd__buf_2 abstract view
.subckt sky130_fd_sc_hd__buf_2 A VGND VNB VPB VPWR X
.ends

* Black-box entry subcircuit for sky130_fd_sc_hd__or2_1 abstract view
.subckt sky130_fd_sc_hd__or2_1 A B VGND VNB VPB VPWR X
.ends

* Black-box entry subcircuit for sky130_fd_sc_hd__decap_3 abstract view
.subckt sky130_fd_sc_hd__decap_3 VGND VNB VPB VPWR
.ends

* Black-box entry subcircuit for sky130_fd_sc_hd__or3_1 abstract view
.subckt sky130_fd_sc_hd__or3_1 A B C VGND VNB VPB VPWR X
.ends

* Black-box entry subcircuit for sky130_fd_sc_hd__mux2_1 abstract view
.subckt sky130_fd_sc_hd__mux2_1 A0 A1 S VGND VNB VPB VPWR X
.ends

* Black-box entry subcircuit for sky130_fd_sc_hd__and2_1 abstract view
.subckt sky130_fd_sc_hd__and2_1 A B VGND VNB VPB VPWR X
.ends

* Black-box entry subcircuit for sky130_fd_sc_hd__clkinv_2 abstract view
.subckt sky130_fd_sc_hd__clkinv_2 A VGND VNB VPB VPWR Y
.ends

* Black-box entry subcircuit for sky130_fd_sc_hd__or4_2 abstract view
.subckt sky130_fd_sc_hd__or4_2 A B C D VGND VNB VPB VPWR X
.ends

* Black-box entry subcircuit for sky130_fd_sc_hd__a22o_1 abstract view
.subckt sky130_fd_sc_hd__a22o_1 A1 A2 B1 B2 VGND VNB VPB VPWR X
.ends

* Black-box entry subcircuit for sky130_fd_sc_hd__a211o_1 abstract view
.subckt sky130_fd_sc_hd__a211o_1 A1 A2 B1 C1 VGND VNB VPB VPWR X
.ends

* Black-box entry subcircuit for sky130_fd_sc_hd__a21oi_1 abstract view
.subckt sky130_fd_sc_hd__a21oi_1 A1 A2 B1 VGND VNB VPB VPWR Y
.ends

* Black-box entry subcircuit for sky130_fd_sc_hd__clkbuf_2 abstract view
.subckt sky130_fd_sc_hd__clkbuf_2 A VGND VNB VPB VPWR X
.ends

* Black-box entry subcircuit for sky130_fd_sc_hd__nand2_1 abstract view
.subckt sky130_fd_sc_hd__nand2_1 A B VGND VNB VPB VPWR Y
.ends

* Black-box entry subcircuit for sky130_fd_sc_hd__dfxtp_2 abstract view
.subckt sky130_fd_sc_hd__dfxtp_2 CLK D VGND VNB VPB VPWR Q
.ends

* Black-box entry subcircuit for sky130_fd_sc_hd__inv_2 abstract view
.subckt sky130_fd_sc_hd__inv_2 A VGND VNB VPB VPWR Y
.ends

* Black-box entry subcircuit for sky130_fd_sc_hd__a21boi_1 abstract view
.subckt sky130_fd_sc_hd__a21boi_1 A1 A2 B1_N VGND VNB VPB VPWR Y
.ends

* Black-box entry subcircuit for sky130_fd_sc_hd__clkbuf_4 abstract view
.subckt sky130_fd_sc_hd__clkbuf_4 A VGND VNB VPB VPWR X
.ends

* Black-box entry subcircuit for sky130_fd_sc_hd__nand2_2 abstract view
.subckt sky130_fd_sc_hd__nand2_2 A B VGND VNB VPB VPWR Y
.ends

* Black-box entry subcircuit for sky130_fd_sc_hd__nor2_2 abstract view
.subckt sky130_fd_sc_hd__nor2_2 A B VGND VNB VPB VPWR Y
.ends

* Black-box entry subcircuit for sky130_fd_sc_hd__o21a_1 abstract view
.subckt sky130_fd_sc_hd__o21a_1 A1 A2 B1 VGND VNB VPB VPWR X
.ends

* Black-box entry subcircuit for sky130_fd_sc_hd__nor4_4 abstract view
.subckt sky130_fd_sc_hd__nor4_4 A B C D VGND VNB VPB VPWR Y
.ends

* Black-box entry subcircuit for sky130_fd_sc_hd__clkbuf_16 abstract view
.subckt sky130_fd_sc_hd__clkbuf_16 A VGND VNB VPB VPWR X
.ends

* Black-box entry subcircuit for sky130_fd_sc_hd__nor2_1 abstract view
.subckt sky130_fd_sc_hd__nor2_1 A B VGND VNB VPB VPWR Y
.ends

* Black-box entry subcircuit for sky130_fd_sc_hd__a211oi_1 abstract view
.subckt sky130_fd_sc_hd__a211oi_1 A1 A2 B1 C1 VGND VNB VPB VPWR Y
.ends

* Black-box entry subcircuit for sky130_fd_sc_hd__nor3_1 abstract view
.subckt sky130_fd_sc_hd__nor3_1 A B C VGND VNB VPB VPWR Y
.ends

* Black-box entry subcircuit for sky130_fd_sc_hd__o211a_1 abstract view
.subckt sky130_fd_sc_hd__o211a_1 A1 A2 B1 C1 VGND VNB VPB VPWR X
.ends

* Black-box entry subcircuit for sky130_fd_sc_hd__o21ai_1 abstract view
.subckt sky130_fd_sc_hd__o21ai_1 A1 A2 B1 VGND VNB VPB VPWR Y
.ends

* Black-box entry subcircuit for sky130_fd_sc_hd__or4_4 abstract view
.subckt sky130_fd_sc_hd__or4_4 A B C D VGND VNB VPB VPWR X
.ends

* Black-box entry subcircuit for sky130_fd_sc_hd__or4b_2 abstract view
.subckt sky130_fd_sc_hd__or4b_2 A B C D_N VGND VNB VPB VPWR X
.ends

* Black-box entry subcircuit for sky130_fd_sc_hd__mux2_2 abstract view
.subckt sky130_fd_sc_hd__mux2_2 A0 A1 S VGND VNB VPB VPWR X
.ends

* Black-box entry subcircuit for sky130_fd_sc_hd__o2bb2a_1 abstract view
.subckt sky130_fd_sc_hd__o2bb2a_1 A1_N A2_N B1 B2 VGND VNB VPB VPWR X
.ends

* Black-box entry subcircuit for sky130_fd_sc_hd__mux2_4 abstract view
.subckt sky130_fd_sc_hd__mux2_4 A0 A1 S VGND VNB VPB VPWR X
.ends

.subckt SPI clk peripheralBus_address[0] peripheralBus_address[10] peripheralBus_address[11]
+ peripheralBus_address[12] peripheralBus_address[13] peripheralBus_address[14] peripheralBus_address[15]
+ peripheralBus_address[16] peripheralBus_address[17] peripheralBus_address[18] peripheralBus_address[19]
+ peripheralBus_address[1] peripheralBus_address[20] peripheralBus_address[21] peripheralBus_address[22]
+ peripheralBus_address[23] peripheralBus_address[2] peripheralBus_address[3] peripheralBus_address[4]
+ peripheralBus_address[5] peripheralBus_address[6] peripheralBus_address[7] peripheralBus_address[8]
+ peripheralBus_address[9] peripheralBus_busy peripheralBus_data[0] peripheralBus_data[10]
+ peripheralBus_data[11] peripheralBus_data[12] peripheralBus_data[13] peripheralBus_data[14]
+ peripheralBus_data[15] peripheralBus_data[16] peripheralBus_data[17] peripheralBus_data[18]
+ peripheralBus_data[19] peripheralBus_data[1] peripheralBus_data[20] peripheralBus_data[21]
+ peripheralBus_data[22] peripheralBus_data[23] peripheralBus_data[24] peripheralBus_data[25]
+ peripheralBus_data[26] peripheralBus_data[27] peripheralBus_data[28] peripheralBus_data[29]
+ peripheralBus_data[2] peripheralBus_data[30] peripheralBus_data[31] peripheralBus_data[3]
+ peripheralBus_data[4] peripheralBus_data[5] peripheralBus_data[6] peripheralBus_data[7]
+ peripheralBus_data[8] peripheralBus_data[9] peripheralBus_oe peripheralBus_we rst
+ spi_clk[0] spi_clk[1] spi_cs[0] spi_cs[1] spi_en[0] spi_en[1] spi_miso[0] spi_miso[1]
+ spi_mosi[0] spi_mosi[1] vccd1 vssd1
XFILLER_54_236 vssd1 vssd1 vccd1 vccd1 sky130_fd_sc_hd__decap_8
XFILLER_39_222 vssd1 vssd1 vccd1 vccd1 sky130_fd_sc_hd__fill_2
XTAP_177 vssd1 vccd1 sky130_fd_sc_hd__tapvpwrvgnd_1
XTAP_188 vssd1 vccd1 sky130_fd_sc_hd__tapvpwrvgnd_1
XTAP_199 vssd1 vccd1 sky130_fd_sc_hd__tapvpwrvgnd_1
XANTENNA__1381__CLK _1404_/CLK vssd1 vssd1 vccd1 vccd1 sky130_fd_sc_hd__diode_2
XFILLER_45_225 vssd1 vssd1 vccd1 vccd1 sky130_fd_sc_hd__decap_12
XFILLER_26_85 vssd1 vssd1 vccd1 vccd1 sky130_fd_sc_hd__fill_2
XFILLER_13_111 vssd1 vssd1 vccd1 vccd1 sky130_fd_sc_hd__fill_1
X_1462__94 vssd1 vssd1 vccd1 vccd1 _1462__94/HI _1584_/A sky130_fd_sc_hd__conb_1
XFILLER_42_73 vssd1 vssd1 vccd1 vccd1 sky130_fd_sc_hd__decap_4
XFILLER_9_159 vssd1 vssd1 vccd1 vccd1 sky130_fd_sc_hd__decap_8
XFILLER_3_12 vssd1 vssd1 vccd1 vccd1 sky130_fd_sc_hd__decap_6
XFILLER_36_269 vssd1 vssd1 vccd1 vccd1 sky130_fd_sc_hd__fill_1
XFILLER_36_203 vssd1 vssd1 vccd1 vccd1 sky130_fd_sc_hd__decap_4
X_1270_ _1270_/A vssd1 vssd1 vccd1 vccd1 _1383_/D sky130_fd_sc_hd__clkbuf_1
X_0985_ _0991_/A _0991_/B _0985_/C _0985_/D vssd1 vssd1 vccd1 vccd1 _0986_/A sky130_fd_sc_hd__or4_1
X_1606_ _1606_/A _0899_/X vssd1 vssd1 vccd1 vccd1 peripheralBus_data[7] sky130_fd_sc_hd__ebufn_8
X_1537_ _1537_/A _1044_/X vssd1 vssd1 vccd1 vccd1 peripheralBus_data[2] sky130_fd_sc_hd__ebufn_8
X_1399_ _1404_/CLK _1399_/D vssd1 vssd1 vccd1 vccd1 _1399_/Q sky130_fd_sc_hd__dfxtp_1
XFILLER_42_228 vssd1 vssd1 vccd1 vccd1 sky130_fd_sc_hd__decap_4
XFILLER_27_225 vssd1 vssd1 vccd1 vccd1 sky130_fd_sc_hd__decap_6
XFILLER_12_21 vssd1 vssd1 vccd1 vccd1 sky130_fd_sc_hd__decap_6
XFILLER_37_84 vssd1 vssd1 vccd1 vccd1 sky130_fd_sc_hd__decap_8
X_0770_ _0867_/A vssd1 vssd1 vccd1 vccd1 _0789_/C sky130_fd_sc_hd__dlymetal6s2s_1
XFILLER_5_162 vssd1 vssd1 vccd1 vccd1 sky130_fd_sc_hd__decap_6
XFILLER_56_309 vssd1 vssd1 vccd1 vccd1 sky130_fd_sc_hd__decap_12
XFILLER_1_390 vssd1 vssd1 vccd1 vccd1 sky130_fd_sc_hd__fill_2
X_1253_ _1267_/A vssd1 vssd1 vccd1 vccd1 _1253_/X sky130_fd_sc_hd__buf_2
X_1322_ _1334_/A _1322_/B vssd1 vssd1 vccd1 vccd1 _1323_/A sky130_fd_sc_hd__or2_1
X_1184_ _1184_/A vssd1 vssd1 vccd1 vccd1 _1365_/D sky130_fd_sc_hd__clkbuf_1
XFILLER_49_361 vssd1 vssd1 vccd1 vccd1 sky130_fd_sc_hd__decap_12
XFILLER_24_239 vssd1 vssd1 vccd1 vccd1 sky130_fd_sc_hd__fill_1
X_0968_ _0968_/A vssd1 vssd1 vccd1 vccd1 _0968_/X sky130_fd_sc_hd__clkbuf_1
X_0899_ _0899_/A vssd1 vssd1 vccd1 vccd1 _0899_/X sky130_fd_sc_hd__clkbuf_1
XFILLER_59_136 vssd1 vssd1 vccd1 vccd1 sky130_fd_sc_hd__decap_12
XFILLER_47_309 vssd1 vssd1 vccd1 vccd1 sky130_fd_sc_hd__fill_1
X_1432__64 vssd1 vssd1 vccd1 vccd1 _1432__64/HI _1546_/A sky130_fd_sc_hd__conb_1
XFILLER_38_309 vssd1 vssd1 vccd1 vccd1 sky130_fd_sc_hd__decap_4
XFILLER_2_165 vssd1 vssd1 vccd1 vccd1 sky130_fd_sc_hd__fill_1
XFILLER_2_110 vssd1 vssd1 vccd1 vccd1 sky130_fd_sc_hd__decap_4
XANTENNA__1336__A0 _1185_/X vssd1 vssd1 vccd1 vccd1 sky130_fd_sc_hd__diode_2
XFILLER_48_83 vssd1 vssd1 vccd1 vccd1 sky130_fd_sc_hd__fill_1
XFILLER_0_13 vssd1 vssd1 vccd1 vccd1 sky130_fd_sc_hd__decap_4
XFILLER_0_57 vssd1 vssd1 vccd1 vccd1 sky130_fd_sc_hd__decap_12
XFILLER_61_389 vssd1 vssd1 vccd1 vccd1 sky130_fd_sc_hd__decap_3
X_0822_ _0891_/A vssd1 vssd1 vccd1 vccd1 _0845_/D sky130_fd_sc_hd__dlymetal6s2s_1
XFILLER_9_55 vssd1 vssd1 vccd1 vccd1 sky130_fd_sc_hd__fill_1
XANTENNA__0801__A _0931_/A vssd1 vssd1 vccd1 vccd1 sky130_fd_sc_hd__diode_2
XANTENNA__1327__A0 peripheralBus_data[4] vssd1 vssd1 vccd1 vccd1 sky130_fd_sc_hd__diode_2
X_0753_ _0753_/A _0753_/B _0753_/C _0753_/D vssd1 vssd1 vccd1 vccd1 _0756_/B sky130_fd_sc_hd__or4_1
X_1236_ _1236_/A _1379_/Q _1236_/C vssd1 vssd1 vccd1 vccd1 _1236_/X sky130_fd_sc_hd__or3_1
X_1305_ _1303_/X _1304_/X _1305_/S vssd1 vssd1 vccd1 vccd1 _1305_/X sky130_fd_sc_hd__mux2_1
X_1167_ _1177_/A _1167_/B vssd1 vssd1 vccd1 vccd1 _1168_/A sky130_fd_sc_hd__and2_1
XFILLER_52_356 vssd1 vssd1 vccd1 vccd1 sky130_fd_sc_hd__decap_8
X_1098_ _1098_/A vssd1 vssd1 vccd1 vccd1 _1098_/X sky130_fd_sc_hd__clkbuf_1
XFILLER_20_220 vssd1 vssd1 vccd1 vccd1 sky130_fd_sc_hd__decap_8
XFILLER_20_253 vssd1 vssd1 vccd1 vccd1 sky130_fd_sc_hd__decap_12
XANTENNA__1318__A0 peripheralBus_data[1] vssd1 vssd1 vccd1 vccd1 sky130_fd_sc_hd__diode_2
XFILLER_55_194 vssd1 vssd1 vccd1 vccd1 sky130_fd_sc_hd__decap_4
XFILLER_18_20 vssd1 vssd1 vccd1 vccd1 sky130_fd_sc_hd__decap_8
XFILLER_34_85 vssd1 vssd1 vccd1 vccd1 sky130_fd_sc_hd__decap_4
XTAP_507 vssd1 vccd1 sky130_fd_sc_hd__tapvpwrvgnd_1
XFILLER_11_297 vssd1 vssd1 vccd1 vccd1 sky130_fd_sc_hd__decap_4
XTAP_529 vssd1 vccd1 sky130_fd_sc_hd__tapvpwrvgnd_1
XTAP_518 vssd1 vccd1 sky130_fd_sc_hd__tapvpwrvgnd_1
X_1487__119 vssd1 vssd1 vccd1 vccd1 _1487__119/HI _1617_/A sky130_fd_sc_hd__conb_1
XFILLER_38_139 vssd1 vssd1 vccd1 vccd1 sky130_fd_sc_hd__fill_1
XFILLER_15_6 vssd1 vssd1 vccd1 vccd1 sky130_fd_sc_hd__decap_4
XFILLER_61_164 vssd1 vssd1 vccd1 vccd1 sky130_fd_sc_hd__decap_4
X_1021_ _1021_/A _1021_/B _1029_/C _1029_/D vssd1 vssd1 vccd1 vccd1 _1022_/A sky130_fd_sc_hd__or4_1
XFILLER_34_389 vssd1 vssd1 vccd1 vccd1 sky130_fd_sc_hd__decap_12
X_0805_ _0805_/A vssd1 vssd1 vccd1 vccd1 _0805_/X sky130_fd_sc_hd__clkbuf_1
X_0736_ _0752_/A input1/X _0755_/A _0753_/A vssd1 vssd1 vccd1 vccd1 _0737_/D sky130_fd_sc_hd__or4_1
XFILLER_55_18 vssd1 vssd1 vccd1 vccd1 sky130_fd_sc_hd__fill_1
XFILLER_37_172 vssd1 vssd1 vccd1 vccd1 sky130_fd_sc_hd__decap_8
X_1219_ _1269_/A _1219_/B vssd1 vssd1 vccd1 vccd1 _1220_/A sky130_fd_sc_hd__and2_1
XFILLER_25_301 vssd1 vssd1 vccd1 vccd1 sky130_fd_sc_hd__decap_12
XFILLER_20_65 vssd1 vssd1 vccd1 vccd1 sky130_fd_sc_hd__decap_12
XFILLER_29_63 vssd1 vssd1 vccd1 vccd1 sky130_fd_sc_hd__decap_4
XFILLER_29_52 vssd1 vssd1 vccd1 vccd1 sky130_fd_sc_hd__decap_4
XFILLER_45_95 vssd1 vssd1 vccd1 vccd1 sky130_fd_sc_hd__decap_6
XFILLER_45_40 vssd1 vssd1 vccd1 vccd1 sky130_fd_sc_hd__decap_4
XFILLER_43_131 vssd1 vssd1 vccd1 vccd1 sky130_fd_sc_hd__fill_1
XANTENNA__1211__S _1225_/S vssd1 vssd1 vccd1 vccd1 sky130_fd_sc_hd__diode_2
XANTENNA_input18_A peripheralBus_address[3] vssd1 vssd1 vccd1 vccd1 sky130_fd_sc_hd__diode_2
XFILLER_16_389 vssd1 vssd1 vccd1 vccd1 sky130_fd_sc_hd__decap_12
XFILLER_31_348 vssd1 vssd1 vccd1 vccd1 sky130_fd_sc_hd__decap_12
XFILLER_31_337 vssd1 vssd1 vccd1 vccd1 sky130_fd_sc_hd__fill_2
XTAP_348 vssd1 vccd1 sky130_fd_sc_hd__tapvpwrvgnd_1
XTAP_337 vssd1 vccd1 sky130_fd_sc_hd__tapvpwrvgnd_1
XTAP_326 vssd1 vccd1 sky130_fd_sc_hd__tapvpwrvgnd_1
XTAP_315 vssd1 vccd1 sky130_fd_sc_hd__tapvpwrvgnd_1
XTAP_304 vssd1 vccd1 sky130_fd_sc_hd__tapvpwrvgnd_1
XFILLER_3_271 vssd1 vssd1 vccd1 vccd1 sky130_fd_sc_hd__decap_8
X_1570_ _1570_/A _0919_/X vssd1 vssd1 vccd1 vccd1 peripheralBus_data[3] sky130_fd_sc_hd__ebufn_8
XTAP_359 vssd1 vccd1 sky130_fd_sc_hd__tapvpwrvgnd_1
X_1004_ _1004_/A vssd1 vssd1 vccd1 vccd1 _1004_/X sky130_fd_sc_hd__clkbuf_1
XFILLER_34_197 vssd1 vssd1 vccd1 vccd1 sky130_fd_sc_hd__decap_4
XFILLER_34_186 vssd1 vssd1 vccd1 vccd1 sky130_fd_sc_hd__decap_8
XFILLER_34_153 vssd1 vssd1 vccd1 vccd1 sky130_fd_sc_hd__decap_8
XFILLER_22_304 vssd1 vssd1 vccd1 vccd1 sky130_fd_sc_hd__decap_4
XANTENNA__1357__A _1357_/A vssd1 vssd1 vccd1 vccd1 sky130_fd_sc_hd__diode_2
XFILLER_13_337 vssd1 vssd1 vccd1 vccd1 sky130_fd_sc_hd__decap_6
Xoutput31 _1603_/A vssd1 vssd1 vccd1 vccd1 spi_clk[0] sky130_fd_sc_hd__buf_2
XANTENNA__1267__A _1267_/A vssd1 vssd1 vccd1 vccd1 sky130_fd_sc_hd__diode_2
XFILLER_63_237 vssd1 vssd1 vccd1 vccd1 sky130_fd_sc_hd__decap_12
XFILLER_48_278 vssd1 vssd1 vccd1 vccd1 sky130_fd_sc_hd__decap_12
XFILLER_48_234 vssd1 vssd1 vccd1 vccd1 sky130_fd_sc_hd__decap_4
XFILLER_31_123 vssd1 vssd1 vccd1 vccd1 sky130_fd_sc_hd__decap_4
XFILLER_16_153 vssd1 vssd1 vccd1 vccd1 sky130_fd_sc_hd__fill_2
X_1622_ _1622_/A _0839_/X vssd1 vssd1 vccd1 vccd1 peripheralBus_data[23] sky130_fd_sc_hd__ebufn_8
XFILLER_8_330 vssd1 vssd1 vccd1 vccd1 sky130_fd_sc_hd__decap_4
XFILLER_12_381 vssd1 vssd1 vccd1 vccd1 sky130_fd_sc_hd__decap_12
X_1553_ _1553_/A _1086_/X vssd1 vssd1 vccd1 vccd1 peripheralBus_data[18] sky130_fd_sc_hd__ebufn_8
XTAP_167 vssd1 vccd1 sky130_fd_sc_hd__tapvpwrvgnd_1
XTAP_156 vssd1 vccd1 sky130_fd_sc_hd__tapvpwrvgnd_1
XTAP_145 vssd1 vccd1 sky130_fd_sc_hd__tapvpwrvgnd_1
XTAP_134 vssd1 vccd1 sky130_fd_sc_hd__tapvpwrvgnd_1
XTAP_178 vssd1 vccd1 sky130_fd_sc_hd__tapvpwrvgnd_1
XTAP_189 vssd1 vccd1 sky130_fd_sc_hd__tapvpwrvgnd_1
XFILLER_54_259 vssd1 vssd1 vccd1 vccd1 sky130_fd_sc_hd__decap_4
XFILLER_54_248 vssd1 vssd1 vccd1 vccd1 sky130_fd_sc_hd__decap_4
XFILLER_39_245 vssd1 vssd1 vccd1 vccd1 sky130_fd_sc_hd__decap_4
XFILLER_22_189 vssd1 vssd1 vccd1 vccd1 sky130_fd_sc_hd__fill_1
XFILLER_53_281 vssd1 vssd1 vccd1 vccd1 sky130_fd_sc_hd__decap_12
XFILLER_45_237 vssd1 vssd1 vccd1 vccd1 sky130_fd_sc_hd__decap_8
XFILLER_13_123 vssd1 vssd1 vccd1 vccd1 sky130_fd_sc_hd__decap_12
XFILLER_5_311 vssd1 vssd1 vccd1 vccd1 sky130_fd_sc_hd__fill_1
XFILLER_5_322 vssd1 vssd1 vccd1 vccd1 sky130_fd_sc_hd__decap_3
XFILLER_3_57 vssd1 vssd1 vccd1 vccd1 sky130_fd_sc_hd__decap_12
XFILLER_3_35 vssd1 vssd1 vccd1 vccd1 sky130_fd_sc_hd__decap_4
X_1438__70 vssd1 vssd1 vccd1 vccd1 _1438__70/HI _1552_/A sky130_fd_sc_hd__conb_1
X_0984_ _0984_/A vssd1 vssd1 vccd1 vccd1 _0984_/X sky130_fd_sc_hd__clkbuf_1
X_1536_ _1536_/A _1042_/X vssd1 vssd1 vccd1 vccd1 peripheralBus_data[1] sky130_fd_sc_hd__ebufn_8
X_1605_ _1605_/A _0897_/X vssd1 vssd1 vccd1 vccd1 peripheralBus_data[6] sky130_fd_sc_hd__ebufn_8
X_1398_ _1404_/CLK _1398_/D vssd1 vssd1 vccd1 vccd1 _1606_/A sky130_fd_sc_hd__dfxtp_1
XFILLER_63_29 vssd1 vssd1 vccd1 vccd1 sky130_fd_sc_hd__fill_1
XFILLER_50_251 vssd1 vssd1 vccd1 vccd1 sky130_fd_sc_hd__fill_1
XFILLER_35_281 vssd1 vssd1 vccd1 vccd1 sky130_fd_sc_hd__decap_12
XFILLER_27_248 vssd1 vssd1 vccd1 vccd1 sky130_fd_sc_hd__decap_12
XFILLER_37_52 vssd1 vssd1 vccd1 vccd1 sky130_fd_sc_hd__decap_4
XANTENNA__1280__A _1295_/A vssd1 vssd1 vccd1 vccd1 sky130_fd_sc_hd__diode_2
XFILLER_45_6 vssd1 vssd1 vccd1 vccd1 sky130_fd_sc_hd__decap_4
XFILLER_5_185 vssd1 vssd1 vccd1 vccd1 sky130_fd_sc_hd__fill_1
XFILLER_49_373 vssd1 vssd1 vccd1 vccd1 sky130_fd_sc_hd__decap_12
XANTENNA__1371__CLK _1378_/CLK vssd1 vssd1 vccd1 vccd1 sky130_fd_sc_hd__diode_2
X_1252_ _1404_/Q vssd1 vssd1 vccd1 vccd1 _1267_/A sky130_fd_sc_hd__clkinv_2
X_1321_ peripheralBus_data[2] _1601_/A _1333_/S vssd1 vssd1 vccd1 vccd1 _1322_/B sky130_fd_sc_hd__mux2_1
XFILLER_64_365 vssd1 vssd1 vccd1 vccd1 sky130_fd_sc_hd__decap_12
X_1183_ _1208_/A _1183_/B vssd1 vssd1 vccd1 vccd1 _1184_/A sky130_fd_sc_hd__and2_1
XFILLER_24_207 vssd1 vssd1 vccd1 vccd1 sky130_fd_sc_hd__decap_6
XFILLER_32_251 vssd1 vssd1 vccd1 vccd1 sky130_fd_sc_hd__fill_1
X_0967_ _0977_/A _0977_/B _0972_/C _0969_/D vssd1 vssd1 vccd1 vccd1 _0968_/A sky130_fd_sc_hd__or4_2
XFILLER_58_29 vssd1 vssd1 vccd1 vccd1 sky130_fd_sc_hd__decap_6
X_1519_ _1519_/A _0996_/X vssd1 vssd1 vccd1 vccd1 peripheralBus_data[16] sky130_fd_sc_hd__ebufn_8
X_0898_ _0904_/A _0904_/B _0898_/C _0902_/D vssd1 vssd1 vccd1 vccd1 _0899_/A sky130_fd_sc_hd__or4_1
XFILLER_59_148 vssd1 vssd1 vccd1 vccd1 sky130_fd_sc_hd__decap_12
XFILLER_15_229 vssd1 vssd1 vccd1 vccd1 sky130_fd_sc_hd__decap_8
XFILLER_23_65 vssd1 vssd1 vccd1 vccd1 sky130_fd_sc_hd__decap_3
XANTENNA__1275__A _1295_/A vssd1 vssd1 vccd1 vccd1 sky130_fd_sc_hd__diode_2
XFILLER_48_51 vssd1 vssd1 vccd1 vccd1 sky130_fd_sc_hd__decap_12
XFILLER_2_188 vssd1 vssd1 vccd1 vccd1 sky130_fd_sc_hd__decap_8
XANTENNA__1394__CLK _1396_/CLK vssd1 vssd1 vccd1 vccd1 sky130_fd_sc_hd__diode_2
XFILLER_61_302 vssd1 vssd1 vccd1 vccd1 sky130_fd_sc_hd__decap_12
XFILLER_58_192 vssd1 vssd1 vccd1 vccd1 sky130_fd_sc_hd__decap_4
XFILLER_46_365 vssd1 vssd1 vccd1 vccd1 sky130_fd_sc_hd__decap_4
XFILLER_46_321 vssd1 vssd1 vccd1 vccd1 sky130_fd_sc_hd__decap_12
XFILLER_0_69 vssd1 vssd1 vccd1 vccd1 sky130_fd_sc_hd__decap_12
X_0821_ _0821_/A vssd1 vssd1 vccd1 vccd1 _0821_/X sky130_fd_sc_hd__clkbuf_1
X_1408__40 vssd1 vssd1 vccd1 vccd1 _1408__40/HI _1514_/A sky130_fd_sc_hd__conb_1
X_0752_ _0752_/A input1/X vssd1 vssd1 vccd1 vccd1 _0756_/A sky130_fd_sc_hd__or2_1
XANTENNA__1185__A peripheralBus_data[7] vssd1 vssd1 vccd1 vccd1 sky130_fd_sc_hd__diode_2
XFILLER_56_118 vssd1 vssd1 vccd1 vccd1 sky130_fd_sc_hd__decap_4
X_1166_ peripheralBus_data[3] _1144_/X _1165_/X _1155_/X vssd1 vssd1 vccd1 vccd1 _1167_/B
+ sky130_fd_sc_hd__a22o_1
X_1235_ _1233_/X _1234_/Y _1537_/A _1536_/A vssd1 vssd1 vccd1 vccd1 _1236_/C sky130_fd_sc_hd__a211o_1
X_1304_ _1568_/A _1573_/A _1604_/A vssd1 vssd1 vccd1 vccd1 _1304_/X sky130_fd_sc_hd__mux2_1
XFILLER_52_346 vssd1 vssd1 vccd1 vccd1 sky130_fd_sc_hd__fill_1
X_1097_ _1105_/A _1105_/B _1099_/C _1099_/D vssd1 vssd1 vccd1 vccd1 _1098_/A sky130_fd_sc_hd__or4_1
XFILLER_20_265 vssd1 vssd1 vccd1 vccd1 sky130_fd_sc_hd__fill_2
XFILLER_20_298 vssd1 vssd1 vccd1 vccd1 sky130_fd_sc_hd__decap_4
XFILLER_43_335 vssd1 vssd1 vccd1 vccd1 sky130_fd_sc_hd__fill_1
XFILLER_28_365 vssd1 vssd1 vccd1 vccd1 sky130_fd_sc_hd__decap_6
XFILLER_18_98 vssd1 vssd1 vccd1 vccd1 sky130_fd_sc_hd__decap_4
XFILLER_34_64 vssd1 vssd1 vccd1 vccd1 sky130_fd_sc_hd__decap_12
XFILLER_11_221 vssd1 vssd1 vccd1 vccd1 sky130_fd_sc_hd__decap_3
XFILLER_11_265 vssd1 vssd1 vccd1 vccd1 sky130_fd_sc_hd__decap_4
XFILLER_59_50 vssd1 vssd1 vccd1 vccd1 sky130_fd_sc_hd__decap_6
XTAP_519 vssd1 vccd1 sky130_fd_sc_hd__tapvpwrvgnd_1
XTAP_508 vssd1 vccd1 sky130_fd_sc_hd__tapvpwrvgnd_1
XFILLER_50_85 vssd1 vssd1 vccd1 vccd1 sky130_fd_sc_hd__decap_4
XFILLER_7_269 vssd1 vssd1 vccd1 vccd1 sky130_fd_sc_hd__decap_8
X_1020_ _1020_/A vssd1 vssd1 vccd1 vccd1 _1020_/X sky130_fd_sc_hd__clkbuf_1
XFILLER_38_107 vssd1 vssd1 vccd1 vccd1 sky130_fd_sc_hd__decap_4
XFILLER_61_198 vssd1 vssd1 vccd1 vccd1 sky130_fd_sc_hd__fill_2
X_0804_ _0808_/A _0808_/B _0808_/C _0813_/D vssd1 vssd1 vccd1 vccd1 _0805_/A sky130_fd_sc_hd__or4_1
XANTENNA__0812__A _0928_/A vssd1 vssd1 vccd1 vccd1 sky130_fd_sc_hd__diode_2
X_0735_ _0753_/B _0753_/C _0753_/D _0754_/A vssd1 vssd1 vccd1 vccd1 _0737_/C sky130_fd_sc_hd__or4_1
X_1470__102 vssd1 vssd1 vccd1 vccd1 _1470__102/HI _1592_/A sky130_fd_sc_hd__conb_1
XFILLER_57_405 vssd1 vssd1 vccd1 vccd1 sky130_fd_sc_hd__fill_2
X_1218_ peripheralBus_data[4] _1539_/A _1228_/S vssd1 vssd1 vccd1 vccd1 _1219_/B sky130_fd_sc_hd__mux2_1
XFILLER_25_313 vssd1 vssd1 vccd1 vccd1 sky130_fd_sc_hd__decap_12
X_1149_ _1297_/A vssd1 vssd1 vccd1 vccd1 _1337_/A sky130_fd_sc_hd__buf_2
XFILLER_40_349 vssd1 vssd1 vccd1 vccd1 sky130_fd_sc_hd__fill_1
XFILLER_4_217 vssd1 vssd1 vccd1 vccd1 sky130_fd_sc_hd__decap_12
XFILLER_29_42 vssd1 vssd1 vccd1 vccd1 sky130_fd_sc_hd__decap_4
XFILLER_29_31 vssd1 vssd1 vccd1 vccd1 sky130_fd_sc_hd__fill_1
XFILLER_31_305 vssd1 vssd1 vccd1 vccd1 sky130_fd_sc_hd__decap_12
XFILLER_16_324 vssd1 vssd1 vccd1 vccd1 sky130_fd_sc_hd__decap_12
XFILLER_39_405 vssd1 vssd1 vccd1 vccd1 sky130_fd_sc_hd__fill_2
XTAP_349 vssd1 vccd1 sky130_fd_sc_hd__tapvpwrvgnd_1
XTAP_338 vssd1 vccd1 sky130_fd_sc_hd__tapvpwrvgnd_1
XTAP_327 vssd1 vccd1 sky130_fd_sc_hd__tapvpwrvgnd_1
XTAP_316 vssd1 vccd1 sky130_fd_sc_hd__tapvpwrvgnd_1
XTAP_305 vssd1 vccd1 sky130_fd_sc_hd__tapvpwrvgnd_1
XFILLER_3_250 vssd1 vssd1 vccd1 vccd1 sky130_fd_sc_hd__decap_4
X_1003_ _1005_/A _1005_/B _1015_/C _1015_/D vssd1 vssd1 vccd1 vccd1 _1004_/A sky130_fd_sc_hd__or4_1
XFILLER_34_132 vssd1 vssd1 vccd1 vccd1 sky130_fd_sc_hd__decap_8
XFILLER_19_151 vssd1 vssd1 vccd1 vccd1 sky130_fd_sc_hd__decap_4
XANTENNA__1218__A0 peripheralBus_data[4] vssd1 vssd1 vccd1 vccd1 sky130_fd_sc_hd__diode_2
XFILLER_57_279 vssd1 vssd1 vccd1 vccd1 sky130_fd_sc_hd__fill_1
XFILLER_25_176 vssd1 vssd1 vccd1 vccd1 sky130_fd_sc_hd__decap_4
XFILLER_15_55 vssd1 vssd1 vccd1 vccd1 sky130_fd_sc_hd__fill_1
XFILLER_31_65 vssd1 vssd1 vccd1 vccd1 sky130_fd_sc_hd__decap_4
XFILLER_31_43 vssd1 vssd1 vccd1 vccd1 sky130_fd_sc_hd__decap_3
XFILLER_15_99 vssd1 vssd1 vccd1 vccd1 sky130_fd_sc_hd__fill_1
Xoutput32 _1539_/A vssd1 vssd1 vccd1 vccd1 spi_clk[1] sky130_fd_sc_hd__buf_2
XFILLER_0_253 vssd1 vssd1 vccd1 vccd1 sky130_fd_sc_hd__decap_12
XFILLER_63_249 vssd1 vssd1 vccd1 vccd1 sky130_fd_sc_hd__decap_6
XFILLER_56_73 vssd1 vssd1 vccd1 vccd1 sky130_fd_sc_hd__decap_8
XFILLER_56_51 vssd1 vssd1 vccd1 vccd1 sky130_fd_sc_hd__decap_12
XFILLER_16_121 vssd1 vssd1 vccd1 vccd1 sky130_fd_sc_hd__decap_6
XFILLER_16_132 vssd1 vssd1 vccd1 vccd1 sky130_fd_sc_hd__decap_8
XFILLER_31_113 vssd1 vssd1 vccd1 vccd1 sky130_fd_sc_hd__decap_6
XFILLER_12_360 vssd1 vssd1 vccd1 vccd1 sky130_fd_sc_hd__decap_4
X_1621_ _1621_/A _0761_/X vssd1 vssd1 vccd1 vccd1 peripheralBus_data[22] sky130_fd_sc_hd__ebufn_8
X_1552_ _1552_/A _1084_/X vssd1 vssd1 vccd1 vccd1 peripheralBus_data[17] sky130_fd_sc_hd__ebufn_8
XFILLER_12_393 vssd1 vssd1 vccd1 vccd1 sky130_fd_sc_hd__decap_12
XFILLER_39_235 vssd1 vssd1 vccd1 vccd1 sky130_fd_sc_hd__decap_4
XTAP_168 vssd1 vccd1 sky130_fd_sc_hd__tapvpwrvgnd_1
XTAP_157 vssd1 vccd1 sky130_fd_sc_hd__tapvpwrvgnd_1
XTAP_135 vssd1 vccd1 sky130_fd_sc_hd__tapvpwrvgnd_1
XTAP_146 vssd1 vccd1 sky130_fd_sc_hd__tapvpwrvgnd_1
XTAP_179 vssd1 vccd1 sky130_fd_sc_hd__tapvpwrvgnd_1
XFILLER_39_279 vssd1 vssd1 vccd1 vccd1 sky130_fd_sc_hd__fill_1
XFILLER_10_319 vssd1 vssd1 vccd1 vccd1 sky130_fd_sc_hd__decap_12
XFILLER_26_21 vssd1 vssd1 vccd1 vccd1 sky130_fd_sc_hd__decap_6
XFILLER_53_293 vssd1 vssd1 vccd1 vccd1 sky130_fd_sc_hd__decap_12
XFILLER_13_135 vssd1 vssd1 vccd1 vccd1 sky130_fd_sc_hd__decap_12
XFILLER_13_157 vssd1 vssd1 vccd1 vccd1 sky130_fd_sc_hd__decap_4
XFILLER_5_367 vssd1 vssd1 vccd1 vccd1 sky130_fd_sc_hd__decap_12
XFILLER_3_69 vssd1 vssd1 vccd1 vccd1 sky130_fd_sc_hd__decap_3
XFILLER_32_400 vssd1 vssd1 vccd1 vccd1 sky130_fd_sc_hd__decap_6
X_0983_ _0991_/A _0991_/B _0985_/C _0985_/D vssd1 vssd1 vccd1 vccd1 _0984_/A sky130_fd_sc_hd__or4_1
X_1453__85 vssd1 vssd1 vccd1 vccd1 _1453__85/HI _1575_/A sky130_fd_sc_hd__conb_1
X_1535_ _1535_/A _0837_/X vssd1 vssd1 vccd1 vccd1 peripheralBus_data[0] sky130_fd_sc_hd__ebufn_8
X_1604_ _1604_/A _0893_/X vssd1 vssd1 vccd1 vccd1 peripheralBus_data[5] sky130_fd_sc_hd__ebufn_8
XANTENNA__1354__C _1354_/C vssd1 vssd1 vccd1 vccd1 sky130_fd_sc_hd__diode_2
XFILLER_27_238 vssd1 vssd1 vccd1 vccd1 sky130_fd_sc_hd__decap_4
XFILLER_27_216 vssd1 vssd1 vccd1 vccd1 sky130_fd_sc_hd__decap_8
X_1397_ _1404_/CLK _1397_/D vssd1 vssd1 vccd1 vccd1 _1605_/A sky130_fd_sc_hd__dfxtp_1
XFILLER_35_293 vssd1 vssd1 vccd1 vccd1 sky130_fd_sc_hd__decap_12
XFILLER_10_105 vssd1 vssd1 vccd1 vccd1 sky130_fd_sc_hd__fill_2
XANTENNA__0730__A _1141_/B vssd1 vssd1 vccd1 vccd1 sky130_fd_sc_hd__diode_2
XFILLER_2_304 vssd1 vssd1 vccd1 vccd1 sky130_fd_sc_hd__decap_4
XFILLER_10_149 vssd1 vssd1 vccd1 vccd1 sky130_fd_sc_hd__decap_3
XFILLER_5_6 vssd1 vssd1 vccd1 vccd1 sky130_fd_sc_hd__decap_4
XFILLER_58_396 vssd1 vssd1 vccd1 vccd1 sky130_fd_sc_hd__decap_4
XFILLER_33_208 vssd1 vssd1 vccd1 vccd1 sky130_fd_sc_hd__decap_12
XFILLER_53_63 vssd1 vssd1 vccd1 vccd1 sky130_fd_sc_hd__decap_4
XFILLER_53_52 vssd1 vssd1 vccd1 vccd1 sky130_fd_sc_hd__decap_4
XFILLER_41_263 vssd1 vssd1 vccd1 vccd1 sky130_fd_sc_hd__fill_1
X_1320_ _1320_/A vssd1 vssd1 vccd1 vccd1 _1392_/D sky130_fd_sc_hd__clkbuf_1
XFILLER_49_385 vssd1 vssd1 vccd1 vccd1 sky130_fd_sc_hd__decap_6
X_1182_ peripheralBus_data[6] _1144_/A _1181_/X _1155_/A vssd1 vssd1 vccd1 vccd1 _1183_/B
+ sky130_fd_sc_hd__a22o_1
XFILLER_38_6 vssd1 vssd1 vccd1 vccd1 sky130_fd_sc_hd__decap_8
X_1251_ _1247_/X _1250_/Y _1222_/A vssd1 vssd1 vccd1 vccd1 _1381_/D sky130_fd_sc_hd__a21oi_1
XFILLER_64_377 vssd1 vssd1 vccd1 vccd1 sky130_fd_sc_hd__decap_12
XANTENNA__0815__A _0931_/A vssd1 vssd1 vccd1 vccd1 sky130_fd_sc_hd__diode_2
X_0966_ _0994_/A vssd1 vssd1 vccd1 vccd1 _0977_/B sky130_fd_sc_hd__dlymetal6s2s_1
X_0897_ _0897_/A vssd1 vssd1 vccd1 vccd1 _0897_/X sky130_fd_sc_hd__clkbuf_1
X_1518_ _1518_/A _0992_/X vssd1 vssd1 vccd1 vccd1 peripheralBus_data[15] sky130_fd_sc_hd__ebufn_8
XFILLER_23_274 vssd1 vssd1 vccd1 vccd1 sky130_fd_sc_hd__decap_6
XFILLER_23_99 vssd1 vssd1 vccd1 vccd1 sky130_fd_sc_hd__decap_12
XFILLER_58_182 vssd1 vssd1 vccd1 vccd1 sky130_fd_sc_hd__decap_4
XFILLER_48_63 vssd1 vssd1 vccd1 vccd1 sky130_fd_sc_hd__decap_12
XFILLER_46_333 vssd1 vssd1 vccd1 vccd1 sky130_fd_sc_hd__decap_3
XFILLER_46_300 vssd1 vssd1 vccd1 vccd1 sky130_fd_sc_hd__decap_8
XFILLER_14_274 vssd1 vssd1 vccd1 vccd1 sky130_fd_sc_hd__decap_12
X_0820_ _0823_/A _0823_/B _0854_/C _0857_/D vssd1 vssd1 vccd1 vccd1 _0821_/A sky130_fd_sc_hd__or4_1
X_1423__55 vssd1 vssd1 vccd1 vccd1 _1423__55/HI _1529_/A sky130_fd_sc_hd__conb_1
X_0751_ _0867_/A vssd1 vssd1 vccd1 vccd1 _1123_/D sky130_fd_sc_hd__clkbuf_2
XFILLER_9_57 vssd1 vssd1 vccd1 vccd1 sky130_fd_sc_hd__decap_12
XFILLER_36_3 vssd1 vssd1 vccd1 vccd1 sky130_fd_sc_hd__decap_12
X_1303_ _1567_/A _1574_/A _1604_/A vssd1 vssd1 vccd1 vccd1 _1303_/X sky130_fd_sc_hd__mux2_1
XFILLER_64_141 vssd1 vssd1 vccd1 vccd1 sky130_fd_sc_hd__decap_12
X_1165_ _1506_/A _1164_/X _1175_/S vssd1 vssd1 vccd1 vccd1 _1165_/X sky130_fd_sc_hd__mux2_1
X_1096_ _1096_/A vssd1 vssd1 vccd1 vccd1 _1096_/X sky130_fd_sc_hd__dlymetal6s2s_1
X_1234_ _1378_/Q _1535_/A vssd1 vssd1 vccd1 vccd1 _1234_/Y sky130_fd_sc_hd__nand2_1
X_0949_ _0949_/A vssd1 vssd1 vccd1 vccd1 _0949_/X sky130_fd_sc_hd__dlymetal6s2s_1
XFILLER_47_108 vssd1 vssd1 vccd1 vccd1 sky130_fd_sc_hd__decap_4
XFILLER_28_311 vssd1 vssd1 vccd1 vccd1 sky130_fd_sc_hd__decap_8
XFILLER_43_347 vssd1 vssd1 vccd1 vccd1 sky130_fd_sc_hd__decap_4
XFILLER_43_303 vssd1 vssd1 vccd1 vccd1 sky130_fd_sc_hd__decap_3
XFILLER_28_344 vssd1 vssd1 vccd1 vccd1 sky130_fd_sc_hd__decap_4
XFILLER_18_66 vssd1 vssd1 vccd1 vccd1 sky130_fd_sc_hd__decap_12
XFILLER_34_76 vssd1 vssd1 vccd1 vccd1 sky130_fd_sc_hd__fill_2
XTAP_509 vssd1 vccd1 sky130_fd_sc_hd__tapvpwrvgnd_1
XFILLER_61_100 vssd1 vssd1 vccd1 vccd1 sky130_fd_sc_hd__decap_12
XFILLER_46_185 vssd1 vssd1 vccd1 vccd1 sky130_fd_sc_hd__decap_4
XFILLER_46_141 vssd1 vssd1 vccd1 vccd1 sky130_fd_sc_hd__decap_4
XFILLER_34_303 vssd1 vssd1 vccd1 vccd1 sky130_fd_sc_hd__decap_4
XFILLER_19_366 vssd1 vssd1 vccd1 vccd1 sky130_fd_sc_hd__decap_4
XANTENNA__1225__S _1225_/S vssd1 vssd1 vccd1 vccd1 sky130_fd_sc_hd__diode_2
XFILLER_61_144 vssd1 vssd1 vccd1 vccd1 sky130_fd_sc_hd__decap_12
X_0803_ _0803_/A vssd1 vssd1 vccd1 vccd1 _0803_/X sky130_fd_sc_hd__clkbuf_1