* NGSPICE file created from user_project_wrapper.ext - technology: sky130A

* Black-box entry subcircuit for sky130_sram_2kbyte_1rw1r_32x512_8 abstract view
.subckt sky130_sram_2kbyte_1rw1r_32x512_8 din0[0] din0[1] din0[2] din0[3] din0[4]
+ din0[5] din0[6] din0[7] din0[8] din0[9] din0[10] din0[11] din0[12] din0[13] din0[14]
+ din0[15] din0[16] din0[17] din0[18] din0[19] din0[20] din0[21] din0[22] din0[23]
+ din0[24] din0[25] din0[26] din0[27] din0[28] din0[29] din0[30] din0[31] addr0[0]
+ addr0[1] addr0[2] addr0[3] addr0[4] addr0[5] addr0[6] addr0[7] addr0[8] addr1[0]
+ addr1[1] addr1[2] addr1[3] addr1[4] addr1[5] addr1[6] addr1[7] addr1[8] csb0 csb1
+ web0 clk0 clk1 wmask0[0] wmask0[1] wmask0[2] wmask0[3] dout0[0] dout0[1] dout0[2]
+ dout0[3] dout0[4] dout0[5] dout0[6] dout0[7] dout0[8] dout0[9] dout0[10] dout0[11]
+ dout0[12] dout0[13] dout0[14] dout0[15] dout0[16] dout0[17] dout0[18] dout0[19]
+ dout0[20] dout0[21] dout0[22] dout0[23] dout0[24] dout0[25] dout0[26] dout0[27]
+ dout0[28] dout0[29] dout0[30] dout0[31] dout1[0] dout1[1] dout1[2] dout1[3] dout1[4]
+ dout1[5] dout1[6] dout1[7] dout1[8] dout1[9] dout1[10] dout1[11] dout1[12] dout1[13]
+ dout1[14] dout1[15] dout1[16] dout1[17] dout1[18] dout1[19] dout1[20] dout1[21]
+ dout1[22] dout1[23] dout1[24] dout1[25] dout1[26] dout1[27] dout1[28] dout1[29]
+ dout1[30] dout1[31] vccd1 vssd1
.ends

* Black-box entry subcircuit for Art abstract view
.subckt Art vccd1 vssd1
.ends

* Black-box entry subcircuit for ExperiarCore abstract view
.subckt ExperiarCore addr0[0] addr0[1] addr0[2] addr0[3] addr0[4] addr0[5] addr0[6]
+ addr0[7] addr0[8] addr1[0] addr1[1] addr1[2] addr1[3] addr1[4] addr1[5] addr1[6]
+ addr1[7] addr1[8] clk0 clk1 coreIndex[0] coreIndex[1] coreIndex[2] coreIndex[3]
+ coreIndex[4] coreIndex[5] coreIndex[6] coreIndex[7] core_wb_ack_i core_wb_adr_o[0]
+ core_wb_adr_o[10] core_wb_adr_o[11] core_wb_adr_o[12] core_wb_adr_o[13] core_wb_adr_o[14]
+ core_wb_adr_o[15] core_wb_adr_o[16] core_wb_adr_o[17] core_wb_adr_o[18] core_wb_adr_o[19]
+ core_wb_adr_o[1] core_wb_adr_o[20] core_wb_adr_o[21] core_wb_adr_o[22] core_wb_adr_o[23]
+ core_wb_adr_o[24] core_wb_adr_o[25] core_wb_adr_o[26] core_wb_adr_o[27] core_wb_adr_o[2]
+ core_wb_adr_o[3] core_wb_adr_o[4] core_wb_adr_o[5] core_wb_adr_o[6] core_wb_adr_o[7]
+ core_wb_adr_o[8] core_wb_adr_o[9] core_wb_cyc_o core_wb_data_i[0] core_wb_data_i[10]
+ core_wb_data_i[11] core_wb_data_i[12] core_wb_data_i[13] core_wb_data_i[14] core_wb_data_i[15]
+ core_wb_data_i[16] core_wb_data_i[17] core_wb_data_i[18] core_wb_data_i[19] core_wb_data_i[1]
+ core_wb_data_i[20] core_wb_data_i[21] core_wb_data_i[22] core_wb_data_i[23] core_wb_data_i[24]
+ core_wb_data_i[25] core_wb_data_i[26] core_wb_data_i[27] core_wb_data_i[28] core_wb_data_i[29]
+ core_wb_data_i[2] core_wb_data_i[30] core_wb_data_i[31] core_wb_data_i[3] core_wb_data_i[4]
+ core_wb_data_i[5] core_wb_data_i[6] core_wb_data_i[7] core_wb_data_i[8] core_wb_data_i[9]
+ core_wb_data_o[0] core_wb_data_o[10] core_wb_data_o[11] core_wb_data_o[12] core_wb_data_o[13]
+ core_wb_data_o[14] core_wb_data_o[15] core_wb_data_o[16] core_wb_data_o[17] core_wb_data_o[18]
+ core_wb_data_o[19] core_wb_data_o[1] core_wb_data_o[20] core_wb_data_o[21] core_wb_data_o[22]
+ core_wb_data_o[23] core_wb_data_o[24] core_wb_data_o[25] core_wb_data_o[26] core_wb_data_o[27]
+ core_wb_data_o[28] core_wb_data_o[29] core_wb_data_o[2] core_wb_data_o[30] core_wb_data_o[31]
+ core_wb_data_o[3] core_wb_data_o[4] core_wb_data_o[5] core_wb_data_o[6] core_wb_data_o[7]
+ core_wb_data_o[8] core_wb_data_o[9] core_wb_error_i core_wb_sel_o[0] core_wb_sel_o[1]
+ core_wb_sel_o[2] core_wb_sel_o[3] core_wb_stall_i core_wb_stb_o core_wb_we_o csb0[0]
+ csb0[1] csb1[0] csb1[1] din0[0] din0[10] din0[11] din0[12] din0[13] din0[14] din0[15]
+ din0[16] din0[17] din0[18] din0[19] din0[1] din0[20] din0[21] din0[22] din0[23]
+ din0[24] din0[25] din0[26] din0[27] din0[28] din0[29] din0[2] din0[30] din0[31]
+ din0[3] din0[4] din0[5] din0[6] din0[7] din0[8] din0[9] dout0[0] dout0[10] dout0[11]
+ dout0[12] dout0[13] dout0[14] dout0[15] dout0[16] dout0[17] dout0[18] dout0[19]
+ dout0[1] dout0[20] dout0[21] dout0[22] dout0[23] dout0[24] dout0[25] dout0[26] dout0[27]
+ dout0[28] dout0[29] dout0[2] dout0[30] dout0[31] dout0[32] dout0[33] dout0[34] dout0[35]
+ dout0[36] dout0[37] dout0[38] dout0[39] dout0[3] dout0[40] dout0[41] dout0[42] dout0[43]
+ dout0[44] dout0[45] dout0[46] dout0[47] dout0[48] dout0[49] dout0[4] dout0[50] dout0[51]
+ dout0[52] dout0[53] dout0[54] dout0[55] dout0[56] dout0[57] dout0[58] dout0[59]
+ dout0[5] dout0[60] dout0[61] dout0[62] dout0[63] dout0[6] dout0[7] dout0[8] dout0[9]
+ dout1[0] dout1[10] dout1[11] dout1[12] dout1[13] dout1[14] dout1[15] dout1[16] dout1[17]
+ dout1[18] dout1[19] dout1[1] dout1[20] dout1[21] dout1[22] dout1[23] dout1[24] dout1[25]
+ dout1[26] dout1[27] dout1[28] dout1[29] dout1[2] dout1[30] dout1[31] dout1[32] dout1[33]
+ dout1[34] dout1[35] dout1[36] dout1[37] dout1[38] dout1[39] dout1[3] dout1[40] dout1[41]
+ dout1[42] dout1[43] dout1[44] dout1[45] dout1[46] dout1[47] dout1[48] dout1[49]
+ dout1[4] dout1[50] dout1[51] dout1[52] dout1[53] dout1[54] dout1[55] dout1[56] dout1[57]
+ dout1[58] dout1[59] dout1[5] dout1[60] dout1[61] dout1[62] dout1[63] dout1[6] dout1[7]
+ dout1[8] dout1[9] irq[0] irq[10] irq[11] irq[12] irq[13] irq[14] irq[15] irq[1]
+ irq[2] irq[3] irq[4] irq[5] irq[6] irq[7] irq[8] irq[9] jtag_tck jtag_tdi jtag_tdo
+ jtag_tms localMemory_wb_ack_o localMemory_wb_adr_i[0] localMemory_wb_adr_i[10] localMemory_wb_adr_i[11]
+ localMemory_wb_adr_i[12] localMemory_wb_adr_i[13] localMemory_wb_adr_i[14] localMemory_wb_adr_i[15]
+ localMemory_wb_adr_i[16] localMemory_wb_adr_i[17] localMemory_wb_adr_i[18] localMemory_wb_adr_i[19]
+ localMemory_wb_adr_i[1] localMemory_wb_adr_i[20] localMemory_wb_adr_i[21] localMemory_wb_adr_i[22]
+ localMemory_wb_adr_i[23] localMemory_wb_adr_i[2] localMemory_wb_adr_i[3] localMemory_wb_adr_i[4]
+ localMemory_wb_adr_i[5] localMemory_wb_adr_i[6] localMemory_wb_adr_i[7] localMemory_wb_adr_i[8]
+ localMemory_wb_adr_i[9] localMemory_wb_cyc_i localMemory_wb_data_i[0] localMemory_wb_data_i[10]
+ localMemory_wb_data_i[11] localMemory_wb_data_i[12] localMemory_wb_data_i[13] localMemory_wb_data_i[14]
+ localMemory_wb_data_i[15] localMemory_wb_data_i[16] localMemory_wb_data_i[17] localMemory_wb_data_i[18]
+ localMemory_wb_data_i[19] localMemory_wb_data_i[1] localMemory_wb_data_i[20] localMemory_wb_data_i[21]
+ localMemory_wb_data_i[22] localMemory_wb_data_i[23] localMemory_wb_data_i[24] localMemory_wb_data_i[25]
+ localMemory_wb_data_i[26] localMemory_wb_data_i[27] localMemory_wb_data_i[28] localMemory_wb_data_i[29]
+ localMemory_wb_data_i[2] localMemory_wb_data_i[30] localMemory_wb_data_i[31] localMemory_wb_data_i[3]
+ localMemory_wb_data_i[4] localMemory_wb_data_i[5] localMemory_wb_data_i[6] localMemory_wb_data_i[7]
+ localMemory_wb_data_i[8] localMemory_wb_data_i[9] localMemory_wb_data_o[0] localMemory_wb_data_o[10]
+ localMemory_wb_data_o[11] localMemory_wb_data_o[12] localMemory_wb_data_o[13] localMemory_wb_data_o[14]
+ localMemory_wb_data_o[15] localMemory_wb_data_o[16] localMemory_wb_data_o[17] localMemory_wb_data_o[18]
+ localMemory_wb_data_o[19] localMemory_wb_data_o[1] localMemory_wb_data_o[20] localMemory_wb_data_o[21]
+ localMemory_wb_data_o[22] localMemory_wb_data_o[23] localMemory_wb_data_o[24] localMemory_wb_data_o[25]
+ localMemory_wb_data_o[26] localMemory_wb_data_o[27] localMemory_wb_data_o[28] localMemory_wb_data_o[29]
+ localMemory_wb_data_o[2] localMemory_wb_data_o[30] localMemory_wb_data_o[31] localMemory_wb_data_o[3]
+ localMemory_wb_data_o[4] localMemory_wb_data_o[5] localMemory_wb_data_o[6] localMemory_wb_data_o[7]
+ localMemory_wb_data_o[8] localMemory_wb_data_o[9] localMemory_wb_error_o localMemory_wb_sel_i[0]
+ localMemory_wb_sel_i[1] localMemory_wb_sel_i[2] localMemory_wb_sel_i[3] localMemory_wb_stall_o
+ localMemory_wb_stb_i localMemory_wb_we_i manufacturerID[0] manufacturerID[10] manufacturerID[1]
+ manufacturerID[2] manufacturerID[3] manufacturerID[4] manufacturerID[5] manufacturerID[6]
+ manufacturerID[7] manufacturerID[8] manufacturerID[9] partID[0] partID[10] partID[11]
+ partID[12] partID[13] partID[14] partID[15] partID[1] partID[2] partID[3] partID[4]
+ partID[5] partID[6] partID[7] partID[8] partID[9] probe_env[0] probe_env[1] probe_errorCode[0]
+ probe_errorCode[1] probe_isBranch probe_isCompressed probe_isLoad probe_isStore
+ probe_jtagInstruction[0] probe_jtagInstruction[1] probe_jtagInstruction[2] probe_jtagInstruction[3]
+ probe_jtagInstruction[4] probe_opcode[0] probe_opcode[1] probe_opcode[2] probe_opcode[3]
+ probe_opcode[4] probe_opcode[5] probe_opcode[6] probe_programCounter[0] probe_programCounter[10]
+ probe_programCounter[11] probe_programCounter[12] probe_programCounter[13] probe_programCounter[14]
+ probe_programCounter[15] probe_programCounter[16] probe_programCounter[17] probe_programCounter[18]
+ probe_programCounter[19] probe_programCounter[1] probe_programCounter[20] probe_programCounter[21]
+ probe_programCounter[22] probe_programCounter[23] probe_programCounter[24] probe_programCounter[25]
+ probe_programCounter[26] probe_programCounter[27] probe_programCounter[28] probe_programCounter[29]
+ probe_programCounter[2] probe_programCounter[30] probe_programCounter[31] probe_programCounter[3]
+ probe_programCounter[4] probe_programCounter[5] probe_programCounter[6] probe_programCounter[7]
+ probe_programCounter[8] probe_programCounter[9] probe_state[0] probe_state[1] probe_takeBranch
+ vccd1 versionID[0] versionID[1] versionID[2] versionID[3] vssd1 wb_clk_i wb_rst_i
+ web0 wmask0[0] wmask0[1] wmask0[2] wmask0[3]
.ends

* Black-box entry subcircuit for Peripherals abstract view
.subckt Peripherals flash_csb flash_io0_read flash_io0_we flash_io0_write flash_io1_read
+ flash_io1_we flash_io1_write flash_sck internal_uart_rx internal_uart_tx io_in[0]
+ io_in[10] io_in[11] io_in[12] io_in[13] io_in[14] io_in[15] io_in[16] io_in[17]
+ io_in[18] io_in[19] io_in[1] io_in[20] io_in[21] io_in[22] io_in[23] io_in[24] io_in[25]
+ io_in[26] io_in[27] io_in[28] io_in[29] io_in[2] io_in[30] io_in[31] io_in[32] io_in[33]
+ io_in[34] io_in[35] io_in[36] io_in[37] io_in[3] io_in[4] io_in[5] io_in[6] io_in[7]
+ io_in[8] io_in[9] io_oeb[0] io_oeb[10] io_oeb[11] io_oeb[12] io_oeb[13] io_oeb[14]
+ io_oeb[15] io_oeb[16] io_oeb[17] io_oeb[18] io_oeb[19] io_oeb[1] io_oeb[20] io_oeb[21]
+ io_oeb[22] io_oeb[23] io_oeb[24] io_oeb[25] io_oeb[26] io_oeb[27] io_oeb[28] io_oeb[29]
+ io_oeb[2] io_oeb[30] io_oeb[31] io_oeb[32] io_oeb[33] io_oeb[34] io_oeb[35] io_oeb[36]
+ io_oeb[37] io_oeb[3] io_oeb[4] io_oeb[5] io_oeb[6] io_oeb[7] io_oeb[8] io_oeb[9]
+ io_out[0] io_out[10] io_out[11] io_out[12] io_out[13] io_out[14] io_out[15] io_out[16]
+ io_out[17] io_out[18] io_out[19] io_out[1] io_out[20] io_out[21] io_out[22] io_out[23]
+ io_out[24] io_out[25] io_out[26] io_out[27] io_out[28] io_out[29] io_out[2] io_out[30]
+ io_out[31] io_out[32] io_out[33] io_out[34] io_out[35] io_out[36] io_out[37] io_out[3]
+ io_out[4] io_out[5] io_out[6] io_out[7] io_out[8] io_out[9] jtag_tck jtag_tdi jtag_tdo
+ jtag_tms peripheral_irq[0] peripheral_irq[1] peripheral_irq[2] peripheral_irq[3]
+ peripheral_irq[4] peripheral_irq[5] peripheral_irq[6] peripheral_irq[7] peripheral_irq[8]
+ peripheral_irq[9] probe_blink[0] probe_blink[1] vccd1 vga_b[0] vga_b[1] vga_g[0]
+ vga_g[1] vga_hsync vga_r[0] vga_r[1] vga_vsync vssd1 wb_ack_o wb_adr_i[0] wb_adr_i[10]
+ wb_adr_i[11] wb_adr_i[12] wb_adr_i[13] wb_adr_i[14] wb_adr_i[15] wb_adr_i[16] wb_adr_i[17]
+ wb_adr_i[18] wb_adr_i[19] wb_adr_i[1] wb_adr_i[20] wb_adr_i[21] wb_adr_i[22] wb_adr_i[23]
+ wb_adr_i[2] wb_adr_i[3] wb_adr_i[4] wb_adr_i[5] wb_adr_i[6] wb_adr_i[7] wb_adr_i[8]
+ wb_adr_i[9] wb_clk_i wb_cyc_i wb_data_i[0] wb_data_i[10] wb_data_i[11] wb_data_i[12]
+ wb_data_i[13] wb_data_i[14] wb_data_i[15] wb_data_i[16] wb_data_i[17] wb_data_i[18]
+ wb_data_i[19] wb_data_i[1] wb_data_i[20] wb_data_i[21] wb_data_i[22] wb_data_i[23]
+ wb_data_i[24] wb_data_i[25] wb_data_i[26] wb_data_i[27] wb_data_i[28] wb_data_i[29]
+ wb_data_i[2] wb_data_i[30] wb_data_i[31] wb_data_i[3] wb_data_i[4] wb_data_i[5]
+ wb_data_i[6] wb_data_i[7] wb_data_i[8] wb_data_i[9] wb_data_o[0] wb_data_o[10] wb_data_o[11]
+ wb_data_o[12] wb_data_o[13] wb_data_o[14] wb_data_o[15] wb_data_o[16] wb_data_o[17]
+ wb_data_o[18] wb_data_o[19] wb_data_o[1] wb_data_o[20] wb_data_o[21] wb_data_o[22]
+ wb_data_o[23] wb_data_o[24] wb_data_o[25] wb_data_o[26] wb_data_o[27] wb_data_o[28]
+ wb_data_o[29] wb_data_o[2] wb_data_o[30] wb_data_o[31] wb_data_o[3] wb_data_o[4]
+ wb_data_o[5] wb_data_o[6] wb_data_o[7] wb_data_o[8] wb_data_o[9] wb_error_o wb_rst_i
+ wb_sel_i[0] wb_sel_i[1] wb_sel_i[2] wb_sel_i[3] wb_stall_o wb_stb_i wb_we_i
.ends

* Black-box entry subcircuit for WishboneInterconnect abstract view
.subckt WishboneInterconnect master0_wb_ack_i master0_wb_adr_o[0] master0_wb_adr_o[10]
+ master0_wb_adr_o[11] master0_wb_adr_o[12] master0_wb_adr_o[13] master0_wb_adr_o[14]
+ master0_wb_adr_o[15] master0_wb_adr_o[16] master0_wb_adr_o[17] master0_wb_adr_o[18]
+ master0_wb_adr_o[19] master0_wb_adr_o[1] master0_wb_adr_o[20] master0_wb_adr_o[21]
+ master0_wb_adr_o[22] master0_wb_adr_o[23] master0_wb_adr_o[24] master0_wb_adr_o[25]
+ master0_wb_adr_o[26] master0_wb_adr_o[27] master0_wb_adr_o[2] master0_wb_adr_o[3]
+ master0_wb_adr_o[4] master0_wb_adr_o[5] master0_wb_adr_o[6] master0_wb_adr_o[7]
+ master0_wb_adr_o[8] master0_wb_adr_o[9] master0_wb_cyc_o master0_wb_data_i[0] master0_wb_data_i[10]
+ master0_wb_data_i[11] master0_wb_data_i[12] master0_wb_data_i[13] master0_wb_data_i[14]
+ master0_wb_data_i[15] master0_wb_data_i[16] master0_wb_data_i[17] master0_wb_data_i[18]
+ master0_wb_data_i[19] master0_wb_data_i[1] master0_wb_data_i[20] master0_wb_data_i[21]
+ master0_wb_data_i[22] master0_wb_data_i[23] master0_wb_data_i[24] master0_wb_data_i[25]
+ master0_wb_data_i[26] master0_wb_data_i[27] master0_wb_data_i[28] master0_wb_data_i[29]
+ master0_wb_data_i[2] master0_wb_data_i[30] master0_wb_data_i[31] master0_wb_data_i[3]
+ master0_wb_data_i[4] master0_wb_data_i[5] master0_wb_data_i[6] master0_wb_data_i[7]
+ master0_wb_data_i[8] master0_wb_data_i[9] master0_wb_data_o[0] master0_wb_data_o[10]
+ master0_wb_data_o[11] master0_wb_data_o[12] master0_wb_data_o[13] master0_wb_data_o[14]
+ master0_wb_data_o[15] master0_wb_data_o[16] master0_wb_data_o[17] master0_wb_data_o[18]
+ master0_wb_data_o[19] master0_wb_data_o[1] master0_wb_data_o[20] master0_wb_data_o[21]
+ master0_wb_data_o[22] master0_wb_data_o[23] master0_wb_data_o[24] master0_wb_data_o[25]
+ master0_wb_data_o[26] master0_wb_data_o[27] master0_wb_data_o[28] master0_wb_data_o[29]
+ master0_wb_data_o[2] master0_wb_data_o[30] master0_wb_data_o[31] master0_wb_data_o[3]
+ master0_wb_data_o[4] master0_wb_data_o[5] master0_wb_data_o[6] master0_wb_data_o[7]
+ master0_wb_data_o[8] master0_wb_data_o[9] master0_wb_error_i master0_wb_sel_o[0]
+ master0_wb_sel_o[1] master0_wb_sel_o[2] master0_wb_sel_o[3] master0_wb_stall_i master0_wb_stb_o
+ master0_wb_we_o master1_wb_ack_i master1_wb_adr_o[0] master1_wb_adr_o[10] master1_wb_adr_o[11]
+ master1_wb_adr_o[12] master1_wb_adr_o[13] master1_wb_adr_o[14] master1_wb_adr_o[15]
+ master1_wb_adr_o[16] master1_wb_adr_o[17] master1_wb_adr_o[18] master1_wb_adr_o[19]
+ master1_wb_adr_o[1] master1_wb_adr_o[20] master1_wb_adr_o[21] master1_wb_adr_o[22]
+ master1_wb_adr_o[23] master1_wb_adr_o[24] master1_wb_adr_o[25] master1_wb_adr_o[26]
+ master1_wb_adr_o[27] master1_wb_adr_o[2] master1_wb_adr_o[3] master1_wb_adr_o[4]
+ master1_wb_adr_o[5] master1_wb_adr_o[6] master1_wb_adr_o[7] master1_wb_adr_o[8]
+ master1_wb_adr_o[9] master1_wb_cyc_o master1_wb_data_i[0] master1_wb_data_i[10]
+ master1_wb_data_i[11] master1_wb_data_i[12] master1_wb_data_i[13] master1_wb_data_i[14]
+ master1_wb_data_i[15] master1_wb_data_i[16] master1_wb_data_i[17] master1_wb_data_i[18]
+ master1_wb_data_i[19] master1_wb_data_i[1] master1_wb_data_i[20] master1_wb_data_i[21]
+ master1_wb_data_i[22] master1_wb_data_i[23] master1_wb_data_i[24] master1_wb_data_i[25]
+ master1_wb_data_i[26] master1_wb_data_i[27] master1_wb_data_i[28] master1_wb_data_i[29]
+ master1_wb_data_i[2] master1_wb_data_i[30] master1_wb_data_i[31] master1_wb_data_i[3]
+ master1_wb_data_i[4] master1_wb_data_i[5] master1_wb_data_i[6] master1_wb_data_i[7]
+ master1_wb_data_i[8] master1_wb_data_i[9] master1_wb_data_o[0] master1_wb_data_o[10]
+ master1_wb_data_o[11] master1_wb_data_o[12] master1_wb_data_o[13] master1_wb_data_o[14]
+ master1_wb_data_o[15] master1_wb_data_o[16] master1_wb_data_o[17] master1_wb_data_o[18]
+ master1_wb_data_o[19] master1_wb_data_o[1] master1_wb_data_o[20] master1_wb_data_o[21]
+ master1_wb_data_o[22] master1_wb_data_o[23] master1_wb_data_o[24] master1_wb_data_o[25]
+ master1_wb_data_o[26] master1_wb_data_o[27] master1_wb_data_o[28] master1_wb_data_o[29]
+ master1_wb_data_o[2] master1_wb_data_o[30] master1_wb_data_o[31] master1_wb_data_o[3]
+ master1_wb_data_o[4] master1_wb_data_o[5] master1_wb_data_o[6] master1_wb_data_o[7]
+ master1_wb_data_o[8] master1_wb_data_o[9] master1_wb_error_i master1_wb_sel_o[0]
+ master1_wb_sel_o[1] master1_wb_sel_o[2] master1_wb_sel_o[3] master1_wb_stall_i master1_wb_stb_o
+ master1_wb_we_o master2_wb_ack_i master2_wb_adr_o[0] master2_wb_adr_o[10] master2_wb_adr_o[11]
+ master2_wb_adr_o[12] master2_wb_adr_o[13] master2_wb_adr_o[14] master2_wb_adr_o[15]
+ master2_wb_adr_o[16] master2_wb_adr_o[17] master2_wb_adr_o[18] master2_wb_adr_o[19]
+ master2_wb_adr_o[1] master2_wb_adr_o[20] master2_wb_adr_o[21] master2_wb_adr_o[22]
+ master2_wb_adr_o[23] master2_wb_adr_o[24] master2_wb_adr_o[25] master2_wb_adr_o[26]
+ master2_wb_adr_o[27] master2_wb_adr_o[2] master2_wb_adr_o[3] master2_wb_adr_o[4]
+ master2_wb_adr_o[5] master2_wb_adr_o[6] master2_wb_adr_o[7] master2_wb_adr_o[8]
+ master2_wb_adr_o[9] master2_wb_cyc_o master2_wb_data_i[0] master2_wb_data_i[10]
+ master2_wb_data_i[11] master2_wb_data_i[12] master2_wb_data_i[13] master2_wb_data_i[14]
+ master2_wb_data_i[15] master2_wb_data_i[16] master2_wb_data_i[17] master2_wb_data_i[18]
+ master2_wb_data_i[19] master2_wb_data_i[1] master2_wb_data_i[20] master2_wb_data_i[21]
+ master2_wb_data_i[22] master2_wb_data_i[23] master2_wb_data_i[24] master2_wb_data_i[25]
+ master2_wb_data_i[26] master2_wb_data_i[27] master2_wb_data_i[28] master2_wb_data_i[29]
+ master2_wb_data_i[2] master2_wb_data_i[30] master2_wb_data_i[31] master2_wb_data_i[3]
+ master2_wb_data_i[4] master2_wb_data_i[5] master2_wb_data_i[6] master2_wb_data_i[7]
+ master2_wb_data_i[8] master2_wb_data_i[9] master2_wb_data_o[0] master2_wb_data_o[10]
+ master2_wb_data_o[11] master2_wb_data_o[12] master2_wb_data_o[13] master2_wb_data_o[14]
+ master2_wb_data_o[15] master2_wb_data_o[16] master2_wb_data_o[17] master2_wb_data_o[18]
+ master2_wb_data_o[19] master2_wb_data_o[1] master2_wb_data_o[20] master2_wb_data_o[21]
+ master2_wb_data_o[22] master2_wb_data_o[23] master2_wb_data_o[24] master2_wb_data_o[25]
+ master2_wb_data_o[26] master2_wb_data_o[27] master2_wb_data_o[28] master2_wb_data_o[29]
+ master2_wb_data_o[2] master2_wb_data_o[30] master2_wb_data_o[31] master2_wb_data_o[3]
+ master2_wb_data_o[4] master2_wb_data_o[5] master2_wb_data_o[6] master2_wb_data_o[7]
+ master2_wb_data_o[8] master2_wb_data_o[9] master2_wb_error_i master2_wb_sel_o[0]
+ master2_wb_sel_o[1] master2_wb_sel_o[2] master2_wb_sel_o[3] master2_wb_stall_i master2_wb_stb_o
+ master2_wb_we_o probe_master0_currentSlave[0] probe_master0_currentSlave[1] probe_master1_currentSlave[0]
+ probe_master1_currentSlave[1] probe_master2_currentSlave[0] probe_master2_currentSlave[1]
+ probe_master3_currentSlave[0] probe_master3_currentSlave[1] probe_slave0_currentMaster[0]
+ probe_slave0_currentMaster[1] probe_slave1_currentMaster[0] probe_slave1_currentMaster[1]
+ probe_slave2_currentMaster[0] probe_slave2_currentMaster[1] probe_slave3_currentMaster[0]
+ probe_slave3_currentMaster[1] slave0_wb_ack_o slave0_wb_adr_i[0] slave0_wb_adr_i[10]
+ slave0_wb_adr_i[11] slave0_wb_adr_i[12] slave0_wb_adr_i[13] slave0_wb_adr_i[14]
+ slave0_wb_adr_i[15] slave0_wb_adr_i[16] slave0_wb_adr_i[17] slave0_wb_adr_i[18]
+ slave0_wb_adr_i[19] slave0_wb_adr_i[1] slave0_wb_adr_i[20] slave0_wb_adr_i[21] slave0_wb_adr_i[22]
+ slave0_wb_adr_i[23] slave0_wb_adr_i[2] slave0_wb_adr_i[3] slave0_wb_adr_i[4] slave0_wb_adr_i[5]
+ slave0_wb_adr_i[6] slave0_wb_adr_i[7] slave0_wb_adr_i[8] slave0_wb_adr_i[9] slave0_wb_cyc_i
+ slave0_wb_data_i[0] slave0_wb_data_i[10] slave0_wb_data_i[11] slave0_wb_data_i[12]
+ slave0_wb_data_i[13] slave0_wb_data_i[14] slave0_wb_data_i[15] slave0_wb_data_i[16]
+ slave0_wb_data_i[17] slave0_wb_data_i[18] slave0_wb_data_i[19] slave0_wb_data_i[1]
+ slave0_wb_data_i[20] slave0_wb_data_i[21] slave0_wb_data_i[22] slave0_wb_data_i[23]
+ slave0_wb_data_i[24] slave0_wb_data_i[25] slave0_wb_data_i[26] slave0_wb_data_i[27]
+ slave0_wb_data_i[28] slave0_wb_data_i[29] slave0_wb_data_i[2] slave0_wb_data_i[30]
+ slave0_wb_data_i[31] slave0_wb_data_i[3] slave0_wb_data_i[4] slave0_wb_data_i[5]
+ slave0_wb_data_i[6] slave0_wb_data_i[7] slave0_wb_data_i[8] slave0_wb_data_i[9]
+ slave0_wb_data_o[0] slave0_wb_data_o[10] slave0_wb_data_o[11] slave0_wb_data_o[12]
+ slave0_wb_data_o[13] slave0_wb_data_o[14] slave0_wb_data_o[15] slave0_wb_data_o[16]
+ slave0_wb_data_o[17] slave0_wb_data_o[18] slave0_wb_data_o[19] slave0_wb_data_o[1]
+ slave0_wb_data_o[20] slave0_wb_data_o[21] slave0_wb_data_o[22] slave0_wb_data_o[23]
+ slave0_wb_data_o[24] slave0_wb_data_o[25] slave0_wb_data_o[26] slave0_wb_data_o[27]
+ slave0_wb_data_o[28] slave0_wb_data_o[29] slave0_wb_data_o[2] slave0_wb_data_o[30]
+ slave0_wb_data_o[31] slave0_wb_data_o[3] slave0_wb_data_o[4] slave0_wb_data_o[5]
+ slave0_wb_data_o[6] slave0_wb_data_o[7] slave0_wb_data_o[8] slave0_wb_data_o[9]
+ slave0_wb_error_o slave0_wb_sel_i[0] slave0_wb_sel_i[1] slave0_wb_sel_i[2] slave0_wb_sel_i[3]
+ slave0_wb_stall_o slave0_wb_stb_i slave0_wb_we_i slave1_wb_ack_o slave1_wb_adr_i[0]
+ slave1_wb_adr_i[10] slave1_wb_adr_i[11] slave1_wb_adr_i[12] slave1_wb_adr_i[13]
+ slave1_wb_adr_i[14] slave1_wb_adr_i[15] slave1_wb_adr_i[16] slave1_wb_adr_i[17]
+ slave1_wb_adr_i[18] slave1_wb_adr_i[19] slave1_wb_adr_i[1] slave1_wb_adr_i[20] slave1_wb_adr_i[21]
+ slave1_wb_adr_i[22] slave1_wb_adr_i[23] slave1_wb_adr_i[2] slave1_wb_adr_i[3] slave1_wb_adr_i[4]
+ slave1_wb_adr_i[5] slave1_wb_adr_i[6] slave1_wb_adr_i[7] slave1_wb_adr_i[8] slave1_wb_adr_i[9]
+ slave1_wb_cyc_i slave1_wb_data_i[0] slave1_wb_data_i[10] slave1_wb_data_i[11] slave1_wb_data_i[12]
+ slave1_wb_data_i[13] slave1_wb_data_i[14] slave1_wb_data_i[15] slave1_wb_data_i[16]
+ slave1_wb_data_i[17] slave1_wb_data_i[18] slave1_wb_data_i[19] slave1_wb_data_i[1]
+ slave1_wb_data_i[20] slave1_wb_data_i[21] slave1_wb_data_i[22] slave1_wb_data_i[23]
+ slave1_wb_data_i[24] slave1_wb_data_i[25] slave1_wb_data_i[26] slave1_wb_data_i[27]
+ slave1_wb_data_i[28] slave1_wb_data_i[29] slave1_wb_data_i[2] slave1_wb_data_i[30]
+ slave1_wb_data_i[31] slave1_wb_data_i[3] slave1_wb_data_i[4] slave1_wb_data_i[5]
+ slave1_wb_data_i[6] slave1_wb_data_i[7] slave1_wb_data_i[8] slave1_wb_data_i[9]
+ slave1_wb_data_o[0] slave1_wb_data_o[10] slave1_wb_data_o[11] slave1_wb_data_o[12]
+ slave1_wb_data_o[13] slave1_wb_data_o[14] slave1_wb_data_o[15] slave1_wb_data_o[16]
+ slave1_wb_data_o[17] slave1_wb_data_o[18] slave1_wb_data_o[19] slave1_wb_data_o[1]
+ slave1_wb_data_o[20] slave1_wb_data_o[21] slave1_wb_data_o[22] slave1_wb_data_o[23]
+ slave1_wb_data_o[24] slave1_wb_data_o[25] slave1_wb_data_o[26] slave1_wb_data_o[27]
+ slave1_wb_data_o[28] slave1_wb_data_o[29] slave1_wb_data_o[2] slave1_wb_data_o[30]
+ slave1_wb_data_o[31] slave1_wb_data_o[3] slave1_wb_data_o[4] slave1_wb_data_o[5]
+ slave1_wb_data_o[6] slave1_wb_data_o[7] slave1_wb_data_o[8] slave1_wb_data_o[9]
+ slave1_wb_error_o slave1_wb_sel_i[0] slave1_wb_sel_i[1] slave1_wb_sel_i[2] slave1_wb_sel_i[3]
+ slave1_wb_stall_o slave1_wb_stb_i slave1_wb_we_i slave2_wb_ack_o slave2_wb_adr_i[0]
+ slave2_wb_adr_i[10] slave2_wb_adr_i[11] slave2_wb_adr_i[12] slave2_wb_adr_i[13]
+ slave2_wb_adr_i[14] slave2_wb_adr_i[15] slave2_wb_adr_i[16] slave2_wb_adr_i[17]
+ slave2_wb_adr_i[18] slave2_wb_adr_i[19] slave2_wb_adr_i[1] slave2_wb_adr_i[20] slave2_wb_adr_i[21]
+ slave2_wb_adr_i[22] slave2_wb_adr_i[23] slave2_wb_adr_i[2] slave2_wb_adr_i[3] slave2_wb_adr_i[4]
+ slave2_wb_adr_i[5] slave2_wb_adr_i[6] slave2_wb_adr_i[7] slave2_wb_adr_i[8] slave2_wb_adr_i[9]
+ slave2_wb_cyc_i slave2_wb_data_i[0] slave2_wb_data_i[10] slave2_wb_data_i[11] slave2_wb_data_i[12]
+ slave2_wb_data_i[13] slave2_wb_data_i[14] slave2_wb_data_i[15] slave2_wb_data_i[16]
+ slave2_wb_data_i[17] slave2_wb_data_i[18] slave2_wb_data_i[19] slave2_wb_data_i[1]
+ slave2_wb_data_i[20] slave2_wb_data_i[21] slave2_wb_data_i[22] slave2_wb_data_i[23]
+ slave2_wb_data_i[24] slave2_wb_data_i[25] slave2_wb_data_i[26] slave2_wb_data_i[27]
+ slave2_wb_data_i[28] slave2_wb_data_i[29] slave2_wb_data_i[2] slave2_wb_data_i[30]
+ slave2_wb_data_i[31] slave2_wb_data_i[3] slave2_wb_data_i[4] slave2_wb_data_i[5]
+ slave2_wb_data_i[6] slave2_wb_data_i[7] slave2_wb_data_i[8] slave2_wb_data_i[9]
+ slave2_wb_data_o[0] slave2_wb_data_o[10] slave2_wb_data_o[11] slave2_wb_data_o[12]
+ slave2_wb_data_o[13] slave2_wb_data_o[14] slave2_wb_data_o[15] slave2_wb_data_o[16]
+ slave2_wb_data_o[17] slave2_wb_data_o[18] slave2_wb_data_o[19] slave2_wb_data_o[1]
+ slave2_wb_data_o[20] slave2_wb_data_o[21] slave2_wb_data_o[22] slave2_wb_data_o[23]
+ slave2_wb_data_o[24] slave2_wb_data_o[25] slave2_wb_data_o[26] slave2_wb_data_o[27]
+ slave2_wb_data_o[28] slave2_wb_data_o[29] slave2_wb_data_o[2] slave2_wb_data_o[30]
+ slave2_wb_data_o[31] slave2_wb_data_o[3] slave2_wb_data_o[4] slave2_wb_data_o[5]
+ slave2_wb_data_o[6] slave2_wb_data_o[7] slave2_wb_data_o[8] slave2_wb_data_o[9]
+ slave2_wb_error_o slave2_wb_sel_i[0] slave2_wb_sel_i[1] slave2_wb_sel_i[2] slave2_wb_sel_i[3]
+ slave2_wb_stall_o slave2_wb_stb_i slave2_wb_we_i slave3_wb_ack_o slave3_wb_adr_i[0]
+ slave3_wb_adr_i[10] slave3_wb_adr_i[11] slave3_wb_adr_i[12] slave3_wb_adr_i[13]
+ slave3_wb_adr_i[14] slave3_wb_adr_i[15] slave3_wb_adr_i[16] slave3_wb_adr_i[17]
+ slave3_wb_adr_i[18] slave3_wb_adr_i[19] slave3_wb_adr_i[1] slave3_wb_adr_i[20] slave3_wb_adr_i[21]
+ slave3_wb_adr_i[22] slave3_wb_adr_i[23] slave3_wb_adr_i[2] slave3_wb_adr_i[3] slave3_wb_adr_i[4]
+ slave3_wb_adr_i[5] slave3_wb_adr_i[6] slave3_wb_adr_i[7] slave3_wb_adr_i[8] slave3_wb_adr_i[9]
+ slave3_wb_cyc_i slave3_wb_data_i[0] slave3_wb_data_i[10] slave3_wb_data_i[11] slave3_wb_data_i[12]
+ slave3_wb_data_i[13] slave3_wb_data_i[14] slave3_wb_data_i[15] slave3_wb_data_i[16]
+ slave3_wb_data_i[17] slave3_wb_data_i[18] slave3_wb_data_i[19] slave3_wb_data_i[1]
+ slave3_wb_data_i[20] slave3_wb_data_i[21] slave3_wb_data_i[22] slave3_wb_data_i[23]
+ slave3_wb_data_i[24] slave3_wb_data_i[25] slave3_wb_data_i[26] slave3_wb_data_i[27]
+ slave3_wb_data_i[28] slave3_wb_data_i[29] slave3_wb_data_i[2] slave3_wb_data_i[30]
+ slave3_wb_data_i[31] slave3_wb_data_i[3] slave3_wb_data_i[4] slave3_wb_data_i[5]
+ slave3_wb_data_i[6] slave3_wb_data_i[7] slave3_wb_data_i[8] slave3_wb_data_i[9]
+ slave3_wb_data_o[0] slave3_wb_data_o[10] slave3_wb_data_o[11] slave3_wb_data_o[12]
+ slave3_wb_data_o[13] slave3_wb_data_o[14] slave3_wb_data_o[15] slave3_wb_data_o[16]
+ slave3_wb_data_o[17] slave3_wb_data_o[18] slave3_wb_data_o[19] slave3_wb_data_o[1]
+ slave3_wb_data_o[20] slave3_wb_data_o[21] slave3_wb_data_o[22] slave3_wb_data_o[23]
+ slave3_wb_data_o[24] slave3_wb_data_o[25] slave3_wb_data_o[26] slave3_wb_data_o[27]
+ slave3_wb_data_o[28] slave3_wb_data_o[29] slave3_wb_data_o[2] slave3_wb_data_o[30]
+ slave3_wb_data_o[31] slave3_wb_data_o[3] slave3_wb_data_o[4] slave3_wb_data_o[5]
+ slave3_wb_data_o[6] slave3_wb_data_o[7] slave3_wb_data_o[8] slave3_wb_data_o[9]
+ slave3_wb_error_o slave3_wb_sel_i[0] slave3_wb_sel_i[1] slave3_wb_sel_i[2] slave3_wb_sel_i[3]
+ slave3_wb_stall_o slave3_wb_stb_i slave3_wb_we_i slave4_wb_ack_o slave4_wb_adr_i[0]
+ slave4_wb_adr_i[10] slave4_wb_adr_i[11] slave4_wb_adr_i[12] slave4_wb_adr_i[13]
+ slave4_wb_adr_i[14] slave4_wb_adr_i[15] slave4_wb_adr_i[16] slave4_wb_adr_i[17]
+ slave4_wb_adr_i[18] slave4_wb_adr_i[19] slave4_wb_adr_i[1] slave4_wb_adr_i[20] slave4_wb_adr_i[21]
+ slave4_wb_adr_i[22] slave4_wb_adr_i[23] slave4_wb_adr_i[2] slave4_wb_adr_i[3] slave4_wb_adr_i[4]
+ slave4_wb_adr_i[5] slave4_wb_adr_i[6] slave4_wb_adr_i[7] slave4_wb_adr_i[8] slave4_wb_adr_i[9]
+ slave4_wb_cyc_i slave4_wb_data_i[0] slave4_wb_data_i[10] slave4_wb_data_i[11] slave4_wb_data_i[12]
+ slave4_wb_data_i[13] slave4_wb_data_i[14] slave4_wb_data_i[15] slave4_wb_data_i[16]
+ slave4_wb_data_i[17] slave4_wb_data_i[18] slave4_wb_data_i[19] slave4_wb_data_i[1]
+ slave4_wb_data_i[20] slave4_wb_data_i[21] slave4_wb_data_i[22] slave4_wb_data_i[23]
+ slave4_wb_data_i[24] slave4_wb_data_i[25] slave4_wb_data_i[26] slave4_wb_data_i[27]
+ slave4_wb_data_i[28] slave4_wb_data_i[29] slave4_wb_data_i[2] slave4_wb_data_i[30]
+ slave4_wb_data_i[31] slave4_wb_data_i[3] slave4_wb_data_i[4] slave4_wb_data_i[5]
+ slave4_wb_data_i[6] slave4_wb_data_i[7] slave4_wb_data_i[8] slave4_wb_data_i[9]
+ slave4_wb_data_o[0] slave4_wb_data_o[10] slave4_wb_data_o[11] slave4_wb_data_o[12]
+ slave4_wb_data_o[13] slave4_wb_data_o[14] slave4_wb_data_o[15] slave4_wb_data_o[16]
+ slave4_wb_data_o[17] slave4_wb_data_o[18] slave4_wb_data_o[19] slave4_wb_data_o[1]
+ slave4_wb_data_o[20] slave4_wb_data_o[21] slave4_wb_data_o[22] slave4_wb_data_o[23]
+ slave4_wb_data_o[24] slave4_wb_data_o[25] slave4_wb_data_o[26] slave4_wb_data_o[27]
+ slave4_wb_data_o[28] slave4_wb_data_o[29] slave4_wb_data_o[2] slave4_wb_data_o[30]
+ slave4_wb_data_o[31] slave4_wb_data_o[3] slave4_wb_data_o[4] slave4_wb_data_o[5]
+ slave4_wb_data_o[6] slave4_wb_data_o[7] slave4_wb_data_o[8] slave4_wb_data_o[9]