* NGSPICE file created from WishboneInterconnect.ext - technology: sky130A

* Black-box entry subcircuit for sky130_fd_sc_hd__decap_12 abstract view
.subckt sky130_fd_sc_hd__decap_12 VGND VNB VPB VPWR
.ends

* Black-box entry subcircuit for sky130_fd_sc_hd__decap_6 abstract view
.subckt sky130_fd_sc_hd__decap_6 VGND VNB VPB VPWR
.ends

* Black-box entry subcircuit for sky130_fd_sc_hd__decap_4 abstract view
.subckt sky130_fd_sc_hd__decap_4 VGND VNB VPB VPWR
.ends

* Black-box entry subcircuit for sky130_fd_sc_hd__decap_8 abstract view
.subckt sky130_fd_sc_hd__decap_8 VGND VNB VPB VPWR
.ends

* Black-box entry subcircuit for sky130_fd_sc_hd__decap_3 abstract view
.subckt sky130_fd_sc_hd__decap_3 VGND VNB VPB VPWR
.ends

* Black-box entry subcircuit for sky130_fd_sc_hd__buf_6 abstract view
.subckt sky130_fd_sc_hd__buf_6 A VGND VNB VPB VPWR X
.ends

* Black-box entry subcircuit for sky130_fd_sc_hd__clkbuf_2 abstract view
.subckt sky130_fd_sc_hd__clkbuf_2 A VGND VNB VPB VPWR X
.ends

* Black-box entry subcircuit for sky130_fd_sc_hd__diode_2 abstract view
.subckt sky130_fd_sc_hd__diode_2 DIODE VGND VNB VPB VPWR
.ends

* Black-box entry subcircuit for sky130_fd_sc_hd__fill_1 abstract view
.subckt sky130_fd_sc_hd__fill_1 VGND VNB VPB VPWR
.ends

* Black-box entry subcircuit for sky130_fd_sc_hd__tapvpwrvgnd_1 abstract view
.subckt sky130_fd_sc_hd__tapvpwrvgnd_1 VGND VPWR
.ends

* Black-box entry subcircuit for sky130_fd_sc_hd__o22a_2 abstract view
.subckt sky130_fd_sc_hd__o22a_2 A1 A2 B1 B2 VGND VNB VPB VPWR X
.ends

* Black-box entry subcircuit for sky130_fd_sc_hd__buf_12 abstract view
.subckt sky130_fd_sc_hd__buf_12 A VGND VNB VPB VPWR X
.ends

* Black-box entry subcircuit for sky130_fd_sc_hd__buf_2 abstract view
.subckt sky130_fd_sc_hd__buf_2 A VGND VNB VPB VPWR X
.ends

* Black-box entry subcircuit for sky130_fd_sc_hd__dlymetal6s2s_1 abstract view
.subckt sky130_fd_sc_hd__dlymetal6s2s_1 A VGND VNB VPB VPWR X
.ends

* Black-box entry subcircuit for sky130_fd_sc_hd__a22o_1 abstract view
.subckt sky130_fd_sc_hd__a22o_1 A1 A2 B1 B2 VGND VNB VPB VPWR X
.ends

* Black-box entry subcircuit for sky130_fd_sc_hd__o21a_4 abstract view
.subckt sky130_fd_sc_hd__o21a_4 A1 A2 B1 VGND VNB VPB VPWR X
.ends

* Black-box entry subcircuit for sky130_fd_sc_hd__fill_2 abstract view
.subckt sky130_fd_sc_hd__fill_2 VGND VNB VPB VPWR
.ends

* Black-box entry subcircuit for sky130_fd_sc_hd__a21o_2 abstract view
.subckt sky130_fd_sc_hd__a21o_2 A1 A2 B1 VGND VNB VPB VPWR X
.ends

* Black-box entry subcircuit for sky130_fd_sc_hd__o21a_1 abstract view
.subckt sky130_fd_sc_hd__o21a_1 A1 A2 B1 VGND VNB VPB VPWR X
.ends

* Black-box entry subcircuit for sky130_fd_sc_hd__a221o_1 abstract view
.subckt sky130_fd_sc_hd__a221o_1 A1 A2 B1 B2 C1 VGND VNB VPB VPWR X
.ends

* Black-box entry subcircuit for sky130_fd_sc_hd__dfxtp_4 abstract view
.subckt sky130_fd_sc_hd__dfxtp_4 CLK D VGND VNB VPB VPWR Q
.ends

* Black-box entry subcircuit for sky130_fd_sc_hd__clkbuf_1 abstract view
.subckt sky130_fd_sc_hd__clkbuf_1 A VGND VNB VPB VPWR X
.ends

* Black-box entry subcircuit for sky130_fd_sc_hd__a22o_4 abstract view
.subckt sky130_fd_sc_hd__a22o_4 A1 A2 B1 B2 VGND VNB VPB VPWR X
.ends

* Black-box entry subcircuit for sky130_fd_sc_hd__buf_8 abstract view
.subckt sky130_fd_sc_hd__buf_8 A VGND VNB VPB VPWR X
.ends

* Black-box entry subcircuit for sky130_fd_sc_hd__clkbuf_8 abstract view
.subckt sky130_fd_sc_hd__clkbuf_8 A VGND VNB VPB VPWR X
.ends

* Black-box entry subcircuit for sky130_fd_sc_hd__mux2_1 abstract view
.subckt sky130_fd_sc_hd__mux2_1 A0 A1 S VGND VNB VPB VPWR X
.ends

* Black-box entry subcircuit for sky130_fd_sc_hd__a22o_2 abstract view
.subckt sky130_fd_sc_hd__a22o_2 A1 A2 B1 B2 VGND VNB VPB VPWR X
.ends

* Black-box entry subcircuit for sky130_fd_sc_hd__buf_4 abstract view
.subckt sky130_fd_sc_hd__buf_4 A VGND VNB VPB VPWR X
.ends

* Black-box entry subcircuit for sky130_fd_sc_hd__clkbuf_4 abstract view
.subckt sky130_fd_sc_hd__clkbuf_4 A VGND VNB VPB VPWR X
.ends

* Black-box entry subcircuit for sky130_fd_sc_hd__inv_2 abstract view
.subckt sky130_fd_sc_hd__inv_2 A VGND VNB VPB VPWR Y
.ends

* Black-box entry subcircuit for sky130_fd_sc_hd__o211a_1 abstract view
.subckt sky130_fd_sc_hd__o211a_1 A1 A2 B1 C1 VGND VNB VPB VPWR X
.ends

* Black-box entry subcircuit for sky130_fd_sc_hd__nor4b_4 abstract view
.subckt sky130_fd_sc_hd__nor4b_4 A B C D_N VGND VNB VPB VPWR Y
.ends

* Black-box entry subcircuit for sky130_fd_sc_hd__mux2_2 abstract view
.subckt sky130_fd_sc_hd__mux2_2 A0 A1 S VGND VNB VPB VPWR X
.ends

* Black-box entry subcircuit for sky130_fd_sc_hd__a21o_1 abstract view
.subckt sky130_fd_sc_hd__a21o_1 A1 A2 B1 VGND VNB VPB VPWR X
.ends

* Black-box entry subcircuit for sky130_fd_sc_hd__a211o_4 abstract view
.subckt sky130_fd_sc_hd__a211o_4 A1 A2 B1 C1 VGND VNB VPB VPWR X
.ends

* Black-box entry subcircuit for sky130_fd_sc_hd__and4bb_4 abstract view
.subckt sky130_fd_sc_hd__and4bb_4 A_N B_N C D VGND VNB VPB VPWR X
.ends

* Black-box entry subcircuit for sky130_fd_sc_hd__a41o_1 abstract view
.subckt sky130_fd_sc_hd__a41o_1 A1 A2 A3 A4 B1 VGND VNB VPB VPWR X
.ends

* Black-box entry subcircuit for sky130_fd_sc_hd__nand2_2 abstract view
.subckt sky130_fd_sc_hd__nand2_2 A B VGND VNB VPB VPWR Y
.ends

* Black-box entry subcircuit for sky130_fd_sc_hd__a32o_2 abstract view
.subckt sky130_fd_sc_hd__a32o_2 A1 A2 A3 B1 B2 VGND VNB VPB VPWR X
.ends

* Black-box entry subcircuit for sky130_fd_sc_hd__a211o_2 abstract view
.subckt sky130_fd_sc_hd__a211o_2 A1 A2 B1 C1 VGND VNB VPB VPWR X
.ends

* Black-box entry subcircuit for sky130_fd_sc_hd__o22a_4 abstract view
.subckt sky130_fd_sc_hd__o22a_4 A1 A2 B1 B2 VGND VNB VPB VPWR X
.ends

* Black-box entry subcircuit for sky130_fd_sc_hd__and2_2 abstract view
.subckt sky130_fd_sc_hd__and2_2 A B VGND VNB VPB VPWR X
.ends

* Black-box entry subcircuit for sky130_fd_sc_hd__and3_4 abstract view
.subckt sky130_fd_sc_hd__and3_4 A B C VGND VNB VPB VPWR X
.ends

* Black-box entry subcircuit for sky130_fd_sc_hd__a21oi_1 abstract view
.subckt sky130_fd_sc_hd__a21oi_1 A1 A2 B1 VGND VNB VPB VPWR Y
.ends

* Black-box entry subcircuit for sky130_fd_sc_hd__o22a_1 abstract view
.subckt sky130_fd_sc_hd__o22a_1 A1 A2 B1 B2 VGND VNB VPB VPWR X
.ends

* Black-box entry subcircuit for sky130_fd_sc_hd__mux2_4 abstract view
.subckt sky130_fd_sc_hd__mux2_4 A0 A1 S VGND VNB VPB VPWR X
.ends

* Black-box entry subcircuit for sky130_fd_sc_hd__clkbuf_16 abstract view
.subckt sky130_fd_sc_hd__clkbuf_16 A VGND VNB VPB VPWR X
.ends

* Black-box entry subcircuit for sky130_fd_sc_hd__and2_1 abstract view
.subckt sky130_fd_sc_hd__and2_1 A B VGND VNB VPB VPWR X
.ends

* Black-box entry subcircuit for sky130_fd_sc_hd__nand2_1 abstract view
.subckt sky130_fd_sc_hd__nand2_1 A B VGND VNB VPB VPWR Y
.ends

* Black-box entry subcircuit for sky130_fd_sc_hd__nor4_4 abstract view
.subckt sky130_fd_sc_hd__nor4_4 A B C D VGND VNB VPB VPWR Y
.ends

* Black-box entry subcircuit for sky130_fd_sc_hd__nor3b_2 abstract view
.subckt sky130_fd_sc_hd__nor3b_2 A B C_N VGND VNB VPB VPWR Y
.ends

* Black-box entry subcircuit for sky130_fd_sc_hd__or3_1 abstract view
.subckt sky130_fd_sc_hd__or3_1 A B C VGND VNB VPB VPWR X
.ends

* Black-box entry subcircuit for sky130_fd_sc_hd__o21a_2 abstract view
.subckt sky130_fd_sc_hd__o21a_2 A1 A2 B1 VGND VNB VPB VPWR X
.ends

* Black-box entry subcircuit for sky130_fd_sc_hd__or4_4 abstract view
.subckt sky130_fd_sc_hd__or4_4 A B C D VGND VNB VPB VPWR X
.ends

* Black-box entry subcircuit for sky130_fd_sc_hd__nor2_1 abstract view
.subckt sky130_fd_sc_hd__nor2_1 A B VGND VNB VPB VPWR Y
.ends

* Black-box entry subcircuit for sky130_fd_sc_hd__or3b_1 abstract view
.subckt sky130_fd_sc_hd__or3b_1 A B C_N VGND VNB VPB VPWR X
.ends

* Black-box entry subcircuit for sky130_fd_sc_hd__conb_1 abstract view
.subckt sky130_fd_sc_hd__conb_1 VGND VNB VPB VPWR HI LO
.ends

* Black-box entry subcircuit for sky130_fd_sc_hd__nand2_8 abstract view
.subckt sky130_fd_sc_hd__nand2_8 A B VGND VNB VPB VPWR Y
.ends

* Black-box entry subcircuit for sky130_fd_sc_hd__mux2_8 abstract view
.subckt sky130_fd_sc_hd__mux2_8 A0 A1 S VGND VNB VPB VPWR X
.ends

* Black-box entry subcircuit for sky130_fd_sc_hd__a21oi_2 abstract view
.subckt sky130_fd_sc_hd__a21oi_2 A1 A2 B1 VGND VNB VPB VPWR Y
.ends

* Black-box entry subcircuit for sky130_fd_sc_hd__or4b_1 abstract view
.subckt sky130_fd_sc_hd__or4b_1 A B C D_N VGND VNB VPB VPWR X
.ends

* Black-box entry subcircuit for sky130_fd_sc_hd__a211o_1 abstract view
.subckt sky130_fd_sc_hd__a211o_1 A1 A2 B1 C1 VGND VNB VPB VPWR X
.ends

* Black-box entry subcircuit for sky130_fd_sc_hd__and2b_2 abstract view
.subckt sky130_fd_sc_hd__and2b_2 A_N B VGND VNB VPB VPWR X
.ends

* Black-box entry subcircuit for sky130_fd_sc_hd__a21bo_1 abstract view
.subckt sky130_fd_sc_hd__a21bo_1 A1 A2 B1_N VGND VNB VPB VPWR X
.ends

* Black-box entry subcircuit for sky130_fd_sc_hd__a211oi_1 abstract view
.subckt sky130_fd_sc_hd__a211oi_1 A1 A2 B1 C1 VGND VNB VPB VPWR Y
.ends

* Black-box entry subcircuit for sky130_fd_sc_hd__a32o_1 abstract view
.subckt sky130_fd_sc_hd__a32o_1 A1 A2 A3 B1 B2 VGND VNB VPB VPWR X
.ends

* Black-box entry subcircuit for sky130_fd_sc_hd__or2_1 abstract view
.subckt sky130_fd_sc_hd__or2_1 A B VGND VNB VPB VPWR X
.ends

* Black-box entry subcircuit for sky130_fd_sc_hd__o221a_1 abstract view
.subckt sky130_fd_sc_hd__o221a_1 A1 A2 B1 B2 C1 VGND VNB VPB VPWR X
.ends

* Black-box entry subcircuit for sky130_fd_sc_hd__a21o_4 abstract view
.subckt sky130_fd_sc_hd__a21o_4 A1 A2 B1 VGND VNB VPB VPWR X
.ends

* Black-box entry subcircuit for sky130_fd_sc_hd__a31o_1 abstract view
.subckt sky130_fd_sc_hd__a31o_1 A1 A2 A3 B1 VGND VNB VPB VPWR X
.ends

* Black-box entry subcircuit for sky130_fd_sc_hd__nor2_4 abstract view
.subckt sky130_fd_sc_hd__nor2_4 A B VGND VNB VPB VPWR Y
.ends

* Black-box entry subcircuit for sky130_fd_sc_hd__a32oi_1 abstract view
.subckt sky130_fd_sc_hd__a32oi_1 A1 A2 A3 B1 B2 VGND VNB VPB VPWR Y
.ends

* Black-box entry subcircuit for sky130_fd_sc_hd__o21ba_1 abstract view
.subckt sky130_fd_sc_hd__o21ba_1 A1 A2 B1_N VGND VNB VPB VPWR X
.ends

* Black-box entry subcircuit for sky130_fd_sc_hd__clkinv_2 abstract view
.subckt sky130_fd_sc_hd__clkinv_2 A VGND VNB VPB VPWR Y
.ends

* Black-box entry subcircuit for sky130_fd_sc_hd__o31ai_4 abstract view
.subckt sky130_fd_sc_hd__o31ai_4 A1 A2 A3 B1 VGND VNB VPB VPWR Y
.ends

* Black-box entry subcircuit for sky130_fd_sc_hd__nor2_2 abstract view
.subckt sky130_fd_sc_hd__nor2_2 A B VGND VNB VPB VPWR Y
.ends

* Black-box entry subcircuit for sky130_fd_sc_hd__and2b_4 abstract view
.subckt sky130_fd_sc_hd__and2b_4 A_N B VGND VNB VPB VPWR X
.ends

* Black-box entry subcircuit for sky130_fd_sc_hd__or2b_1 abstract view
.subckt sky130_fd_sc_hd__or2b_1 A B_N VGND VNB VPB VPWR X
.ends

* Black-box entry subcircuit for sky130_fd_sc_hd__dfxtp_2 abstract view
.subckt sky130_fd_sc_hd__dfxtp_2 CLK D VGND VNB VPB VPWR Q
.ends

* Black-box entry subcircuit for sky130_fd_sc_hd__and3_1 abstract view
.subckt sky130_fd_sc_hd__and3_1 A B C VGND VNB VPB VPWR X
.ends

* Black-box entry subcircuit for sky130_fd_sc_hd__o31ai_1 abstract view
.subckt sky130_fd_sc_hd__o31ai_1 A1 A2 A3 B1 VGND VNB VPB VPWR Y
.ends

* Black-box entry subcircuit for sky130_fd_sc_hd__and2b_1 abstract view
.subckt sky130_fd_sc_hd__and2b_1 A_N B VGND VNB VPB VPWR X
.ends

* Black-box entry subcircuit for sky130_fd_sc_hd__o21ai_4 abstract view
.subckt sky130_fd_sc_hd__o21ai_4 A1 A2 B1 VGND VNB VPB VPWR Y
.ends

* Black-box entry subcircuit for sky130_fd_sc_hd__o2111a_1 abstract view
.subckt sky130_fd_sc_hd__o2111a_1 A1 A2 B1 C1 D1 VGND VNB VPB VPWR X
.ends

* Black-box entry subcircuit for sky130_fd_sc_hd__nor3b_4 abstract view
.subckt sky130_fd_sc_hd__nor3b_4 A B C_N VGND VNB VPB VPWR Y
.ends

* Black-box entry subcircuit for sky130_fd_sc_hd__a31oi_4 abstract view
.subckt sky130_fd_sc_hd__a31oi_4 A1 A2 A3 B1 VGND VNB VPB VPWR Y
.ends

* Black-box entry subcircuit for sky130_fd_sc_hd__nand3b_2 abstract view
.subckt sky130_fd_sc_hd__nand3b_2 A_N B C VGND VNB VPB VPWR Y
.ends

* Black-box entry subcircuit for sky130_fd_sc_hd__a31oi_1 abstract view
.subckt sky130_fd_sc_hd__a31oi_1 A1 A2 A3 B1 VGND VNB VPB VPWR Y
.ends

.subckt WishboneInterconnect master0_wb_ack_i master0_wb_adr_o[0] master0_wb_adr_o[10]
+ master0_wb_adr_o[11] master0_wb_adr_o[12] master0_wb_adr_o[13] master0_wb_adr_o[14]
+ master0_wb_adr_o[15] master0_wb_adr_o[16] master0_wb_adr_o[17] master0_wb_adr_o[18]
+ master0_wb_adr_o[19] master0_wb_adr_o[1] master0_wb_adr_o[20] master0_wb_adr_o[21]
+ master0_wb_adr_o[22] master0_wb_adr_o[23] master0_wb_adr_o[24] master0_wb_adr_o[25]
+ master0_wb_adr_o[26] master0_wb_adr_o[27] master0_wb_adr_o[2] master0_wb_adr_o[3]
+ master0_wb_adr_o[4] master0_wb_adr_o[5] master0_wb_adr_o[6] master0_wb_adr_o[7]
+ master0_wb_adr_o[8] master0_wb_adr_o[9] master0_wb_cyc_o master0_wb_data_i[0] master0_wb_data_i[10]
+ master0_wb_data_i[11] master0_wb_data_i[12] master0_wb_data_i[13] master0_wb_data_i[14]
+ master0_wb_data_i[15] master0_wb_data_i[16] master0_wb_data_i[17] master0_wb_data_i[18]
+ master0_wb_data_i[19] master0_wb_data_i[1] master0_wb_data_i[20] master0_wb_data_i[21]
+ master0_wb_data_i[22] master0_wb_data_i[23] master0_wb_data_i[24] master0_wb_data_i[25]
+ master0_wb_data_i[26] master0_wb_data_i[27] master0_wb_data_i[28] master0_wb_data_i[29]
+ master0_wb_data_i[2] master0_wb_data_i[30] master0_wb_data_i[31] master0_wb_data_i[3]
+ master0_wb_data_i[4] master0_wb_data_i[5] master0_wb_data_i[6] master0_wb_data_i[7]
+ master0_wb_data_i[8] master0_wb_data_i[9] master0_wb_data_o[0] master0_wb_data_o[10]
+ master0_wb_data_o[11] master0_wb_data_o[12] master0_wb_data_o[13] master0_wb_data_o[14]
+ master0_wb_data_o[15] master0_wb_data_o[16] master0_wb_data_o[17] master0_wb_data_o[18]
+ master0_wb_data_o[19] master0_wb_data_o[1] master0_wb_data_o[20] master0_wb_data_o[21]
+ master0_wb_data_o[22] master0_wb_data_o[23] master0_wb_data_o[24] master0_wb_data_o[25]
+ master0_wb_data_o[26] master0_wb_data_o[27] master0_wb_data_o[28] master0_wb_data_o[29]
+ master0_wb_data_o[2] master0_wb_data_o[30] master0_wb_data_o[31] master0_wb_data_o[3]
+ master0_wb_data_o[4] master0_wb_data_o[5] master0_wb_data_o[6] master0_wb_data_o[7]
+ master0_wb_data_o[8] master0_wb_data_o[9] master0_wb_error_i master0_wb_sel_o[0]
+ master0_wb_sel_o[1] master0_wb_sel_o[2] master0_wb_sel_o[3] master0_wb_stall_i master0_wb_stb_o
+ master0_wb_we_o master1_wb_ack_i master1_wb_adr_o[0] master1_wb_adr_o[10] master1_wb_adr_o[11]
+ master1_wb_adr_o[12] master1_wb_adr_o[13] master1_wb_adr_o[14] master1_wb_adr_o[15]
+ master1_wb_adr_o[16] master1_wb_adr_o[17] master1_wb_adr_o[18] master1_wb_adr_o[19]
+ master1_wb_adr_o[1] master1_wb_adr_o[20] master1_wb_adr_o[21] master1_wb_adr_o[22]
+ master1_wb_adr_o[23] master1_wb_adr_o[24] master1_wb_adr_o[25] master1_wb_adr_o[26]
+ master1_wb_adr_o[27] master1_wb_adr_o[2] master1_wb_adr_o[3] master1_wb_adr_o[4]
+ master1_wb_adr_o[5] master1_wb_adr_o[6] master1_wb_adr_o[7] master1_wb_adr_o[8]
+ master1_wb_adr_o[9] master1_wb_cyc_o master1_wb_data_i[0] master1_wb_data_i[10]
+ master1_wb_data_i[11] master1_wb_data_i[12] master1_wb_data_i[13] master1_wb_data_i[14]
+ master1_wb_data_i[15] master1_wb_data_i[16] master1_wb_data_i[17] master1_wb_data_i[18]
+ master1_wb_data_i[19] master1_wb_data_i[1] master1_wb_data_i[20] master1_wb_data_i[21]
+ master1_wb_data_i[22] master1_wb_data_i[23] master1_wb_data_i[24] master1_wb_data_i[25]
+ master1_wb_data_i[26] master1_wb_data_i[27] master1_wb_data_i[28] master1_wb_data_i[29]
+ master1_wb_data_i[2] master1_wb_data_i[30] master1_wb_data_i[31] master1_wb_data_i[3]
+ master1_wb_data_i[4] master1_wb_data_i[5] master1_wb_data_i[6] master1_wb_data_i[7]
+ master1_wb_data_i[8] master1_wb_data_i[9] master1_wb_data_o[0] master1_wb_data_o[10]
+ master1_wb_data_o[11] master1_wb_data_o[12] master1_wb_data_o[13] master1_wb_data_o[14]
+ master1_wb_data_o[15] master1_wb_data_o[16] master1_wb_data_o[17] master1_wb_data_o[18]
+ master1_wb_data_o[19] master1_wb_data_o[1] master1_wb_data_o[20] master1_wb_data_o[21]
+ master1_wb_data_o[22] master1_wb_data_o[23] master1_wb_data_o[24] master1_wb_data_o[25]
+ master1_wb_data_o[26] master1_wb_data_o[27] master1_wb_data_o[28] master1_wb_data_o[29]
+ master1_wb_data_o[2] master1_wb_data_o[30] master1_wb_data_o[31] master1_wb_data_o[3]
+ master1_wb_data_o[4] master1_wb_data_o[5] master1_wb_data_o[6] master1_wb_data_o[7]
+ master1_wb_data_o[8] master1_wb_data_o[9] master1_wb_error_i master1_wb_sel_o[0]
+ master1_wb_sel_o[1] master1_wb_sel_o[2] master1_wb_sel_o[3] master1_wb_stall_i master1_wb_stb_o
+ master1_wb_we_o master2_wb_ack_i master2_wb_adr_o[0] master2_wb_adr_o[10] master2_wb_adr_o[11]
+ master2_wb_adr_o[12] master2_wb_adr_o[13] master2_wb_adr_o[14] master2_wb_adr_o[15]
+ master2_wb_adr_o[16] master2_wb_adr_o[17] master2_wb_adr_o[18] master2_wb_adr_o[19]
+ master2_wb_adr_o[1] master2_wb_adr_o[20] master2_wb_adr_o[21] master2_wb_adr_o[22]
+ master2_wb_adr_o[23] master2_wb_adr_o[24] master2_wb_adr_o[25] master2_wb_adr_o[26]
+ master2_wb_adr_o[27] master2_wb_adr_o[2] master2_wb_adr_o[3] master2_wb_adr_o[4]
+ master2_wb_adr_o[5] master2_wb_adr_o[6] master2_wb_adr_o[7] master2_wb_adr_o[8]
+ master2_wb_adr_o[9] master2_wb_cyc_o master2_wb_data_i[0] master2_wb_data_i[10]
+ master2_wb_data_i[11] master2_wb_data_i[12] master2_wb_data_i[13] master2_wb_data_i[14]
+ master2_wb_data_i[15] master2_wb_data_i[16] master2_wb_data_i[17] master2_wb_data_i[18]
+ master2_wb_data_i[19] master2_wb_data_i[1] master2_wb_data_i[20] master2_wb_data_i[21]
+ master2_wb_data_i[22] master2_wb_data_i[23] master2_wb_data_i[24] master2_wb_data_i[25]
+ master2_wb_data_i[26] master2_wb_data_i[27] master2_wb_data_i[28] master2_wb_data_i[29]
+ master2_wb_data_i[2] master2_wb_data_i[30] master2_wb_data_i[31] master2_wb_data_i[3]
+ master2_wb_data_i[4] master2_wb_data_i[5] master2_wb_data_i[6] master2_wb_data_i[7]
+ master2_wb_data_i[8] master2_wb_data_i[9] master2_wb_data_o[0] master2_wb_data_o[10]
+ master2_wb_data_o[11] master2_wb_data_o[12] master2_wb_data_o[13] master2_wb_data_o[14]
+ master2_wb_data_o[15] master2_wb_data_o[16] master2_wb_data_o[17] master2_wb_data_o[18]
+ master2_wb_data_o[19] master2_wb_data_o[1] master2_wb_data_o[20] master2_wb_data_o[21]
+ master2_wb_data_o[22] master2_wb_data_o[23] master2_wb_data_o[24] master2_wb_data_o[25]
+ master2_wb_data_o[26] master2_wb_data_o[27] master2_wb_data_o[28] master2_wb_data_o[29]
+ master2_wb_data_o[2] master2_wb_data_o[30] master2_wb_data_o[31] master2_wb_data_o[3]
+ master2_wb_data_o[4] master2_wb_data_o[5] master2_wb_data_o[6] master2_wb_data_o[7]
+ master2_wb_data_o[8] master2_wb_data_o[9] master2_wb_error_i master2_wb_sel_o[0]
+ master2_wb_sel_o[1] master2_wb_sel_o[2] master2_wb_sel_o[3] master2_wb_stall_i master2_wb_stb_o
+ master2_wb_we_o probe_master0_currentSlave[0] probe_master0_currentSlave[1] probe_master0_currentSlave[2]
+ probe_master1_currentSlave[0] probe_master1_currentSlave[1] probe_master1_currentSlave[2]
+ probe_master2_currentSlave[0] probe_master2_currentSlave[1] probe_master2_currentSlave[2]
+ probe_master3_currentSlave[0] probe_master3_currentSlave[1] probe_master3_currentSlave[2]
+ probe_slave0_currentMaster[0] probe_slave0_currentMaster[1] probe_slave1_currentMaster[0]
+ probe_slave1_currentMaster[1] probe_slave2_currentMaster[0] probe_slave2_currentMaster[1]
+ probe_slave3_currentMaster[0] probe_slave3_currentMaster[1] probe_slave4_currentMaster[0]
+ probe_slave4_currentMaster[1] slave0_wb_ack_o slave0_wb_adr_i[0] slave0_wb_adr_i[10]
+ slave0_wb_adr_i[11] slave0_wb_adr_i[12] slave0_wb_adr_i[13] slave0_wb_adr_i[14]
+ slave0_wb_adr_i[15] slave0_wb_adr_i[16] slave0_wb_adr_i[17] slave0_wb_adr_i[18]
+ slave0_wb_adr_i[19] slave0_wb_adr_i[1] slave0_wb_adr_i[20] slave0_wb_adr_i[21] slave0_wb_adr_i[22]
+ slave0_wb_adr_i[23] slave0_wb_adr_i[2] slave0_wb_adr_i[3] slave0_wb_adr_i[4] slave0_wb_adr_i[5]
+ slave0_wb_adr_i[6] slave0_wb_adr_i[7] slave0_wb_adr_i[8] slave0_wb_adr_i[9] slave0_wb_cyc_i
+ slave0_wb_data_i[0] slave0_wb_data_i[10] slave0_wb_data_i[11] slave0_wb_data_i[12]
+ slave0_wb_data_i[13] slave0_wb_data_i[14] slave0_wb_data_i[15] slave0_wb_data_i[16]
+ slave0_wb_data_i[17] slave0_wb_data_i[18] slave0_wb_data_i[19] slave0_wb_data_i[1]
+ slave0_wb_data_i[20] slave0_wb_data_i[21] slave0_wb_data_i[22] slave0_wb_data_i[23]
+ slave0_wb_data_i[24] slave0_wb_data_i[25] slave0_wb_data_i[26] slave0_wb_data_i[27]
+ slave0_wb_data_i[28] slave0_wb_data_i[29] slave0_wb_data_i[2] slave0_wb_data_i[30]
+ slave0_wb_data_i[31] slave0_wb_data_i[3] slave0_wb_data_i[4] slave0_wb_data_i[5]
+ slave0_wb_data_i[6] slave0_wb_data_i[7] slave0_wb_data_i[8] slave0_wb_data_i[9]
+ slave0_wb_data_o[0] slave0_wb_data_o[10] slave0_wb_data_o[11] slave0_wb_data_o[12]
+ slave0_wb_data_o[13] slave0_wb_data_o[14] slave0_wb_data_o[15] slave0_wb_data_o[16]
+ slave0_wb_data_o[17] slave0_wb_data_o[18] slave0_wb_data_o[19] slave0_wb_data_o[1]
+ slave0_wb_data_o[20] slave0_wb_data_o[21] slave0_wb_data_o[22] slave0_wb_data_o[23]
+ slave0_wb_data_o[24] slave0_wb_data_o[25] slave0_wb_data_o[26] slave0_wb_data_o[27]
+ slave0_wb_data_o[28] slave0_wb_data_o[29] slave0_wb_data_o[2] slave0_wb_data_o[30]
+ slave0_wb_data_o[31] slave0_wb_data_o[3] slave0_wb_data_o[4] slave0_wb_data_o[5]
+ slave0_wb_data_o[6] slave0_wb_data_o[7] slave0_wb_data_o[8] slave0_wb_data_o[9]
+ slave0_wb_error_o slave0_wb_sel_i[0] slave0_wb_sel_i[1] slave0_wb_sel_i[2] slave0_wb_sel_i[3]
+ slave0_wb_stall_o slave0_wb_stb_i slave0_wb_we_i slave1_wb_ack_o slave1_wb_adr_i[0]
+ slave1_wb_adr_i[10] slave1_wb_adr_i[11] slave1_wb_adr_i[12] slave1_wb_adr_i[13]
+ slave1_wb_adr_i[14] slave1_wb_adr_i[15] slave1_wb_adr_i[16] slave1_wb_adr_i[17]
+ slave1_wb_adr_i[18] slave1_wb_adr_i[19] slave1_wb_adr_i[1] slave1_wb_adr_i[20] slave1_wb_adr_i[21]
+ slave1_wb_adr_i[22] slave1_wb_adr_i[23] slave1_wb_adr_i[2] slave1_wb_adr_i[3] slave1_wb_adr_i[4]
+ slave1_wb_adr_i[5] slave1_wb_adr_i[6] slave1_wb_adr_i[7] slave1_wb_adr_i[8] slave1_wb_adr_i[9]
+ slave1_wb_cyc_i slave1_wb_data_i[0] slave1_wb_data_i[10] slave1_wb_data_i[11] slave1_wb_data_i[12]
+ slave1_wb_data_i[13] slave1_wb_data_i[14] slave1_wb_data_i[15] slave1_wb_data_i[16]
+ slave1_wb_data_i[17] slave1_wb_data_i[18] slave1_wb_data_i[19] slave1_wb_data_i[1]
+ slave1_wb_data_i[20] slave1_wb_data_i[21] slave1_wb_data_i[22] slave1_wb_data_i[23]
+ slave1_wb_data_i[24] slave1_wb_data_i[25] slave1_wb_data_i[26] slave1_wb_data_i[27]
+ slave1_wb_data_i[28] slave1_wb_data_i[29] slave1_wb_data_i[2] slave1_wb_data_i[30]
+ slave1_wb_data_i[31] slave1_wb_data_i[3] slave1_wb_data_i[4] slave1_wb_data_i[5]
+ slave1_wb_data_i[6] slave1_wb_data_i[7] slave1_wb_data_i[8] slave1_wb_data_i[9]
+ slave1_wb_data_o[0] slave1_wb_data_o[10] slave1_wb_data_o[11] slave1_wb_data_o[12]
+ slave1_wb_data_o[13] slave1_wb_data_o[14] slave1_wb_data_o[15] slave1_wb_data_o[16]
+ slave1_wb_data_o[17] slave1_wb_data_o[18] slave1_wb_data_o[19] slave1_wb_data_o[1]
+ slave1_wb_data_o[20] slave1_wb_data_o[21] slave1_wb_data_o[22] slave1_wb_data_o[23]
+ slave1_wb_data_o[24] slave1_wb_data_o[25] slave1_wb_data_o[26] slave1_wb_data_o[27]
+ slave1_wb_data_o[28] slave1_wb_data_o[29] slave1_wb_data_o[2] slave1_wb_data_o[30]
+ slave1_wb_data_o[31] slave1_wb_data_o[3] slave1_wb_data_o[4] slave1_wb_data_o[5]
+ slave1_wb_data_o[6] slave1_wb_data_o[7] slave1_wb_data_o[8] slave1_wb_data_o[9]
+ slave1_wb_error_o slave1_wb_sel_i[0] slave1_wb_sel_i[1] slave1_wb_sel_i[2] slave1_wb_sel_i[3]
+ slave1_wb_stall_o slave1_wb_stb_i slave1_wb_we_i slave2_wb_ack_o slave2_wb_adr_i[0]
+ slave2_wb_adr_i[10] slave2_wb_adr_i[11] slave2_wb_adr_i[12] slave2_wb_adr_i[13]
+ slave2_wb_adr_i[14] slave2_wb_adr_i[15] slave2_wb_adr_i[16] slave2_wb_adr_i[17]
+ slave2_wb_adr_i[18] slave2_wb_adr_i[19] slave2_wb_adr_i[1] slave2_wb_adr_i[20] slave2_wb_adr_i[21]
+ slave2_wb_adr_i[22] slave2_wb_adr_i[23] slave2_wb_adr_i[2] slave2_wb_adr_i[3] slave2_wb_adr_i[4]
+ slave2_wb_adr_i[5] slave2_wb_adr_i[6] slave2_wb_adr_i[7] slave2_wb_adr_i[8] slave2_wb_adr_i[9]
+ slave2_wb_cyc_i slave2_wb_data_i[0] slave2_wb_data_i[10] slave2_wb_data_i[11] slave2_wb_data_i[12]
+ slave2_wb_data_i[13] slave2_wb_data_i[14] slave2_wb_data_i[15] slave2_wb_data_i[16]
+ slave2_wb_data_i[17] slave2_wb_data_i[18] slave2_wb_data_i[19] slave2_wb_data_i[1]
+ slave2_wb_data_i[20] slave2_wb_data_i[21] slave2_wb_data_i[22] slave2_wb_data_i[23]
+ slave2_wb_data_i[24] slave2_wb_data_i[25] slave2_wb_data_i[26] slave2_wb_data_i[27]
+ slave2_wb_data_i[28] slave2_wb_data_i[29] slave2_wb_data_i[2] slave2_wb_data_i[30]
+ slave2_wb_data_i[31] slave2_wb_data_i[3] slave2_wb_data_i[4] slave2_wb_data_i[5]
+ slave2_wb_data_i[6] slave2_wb_data_i[7] slave2_wb_data_i[8] slave2_wb_data_i[9]
+ slave2_wb_data_o[0] slave2_wb_data_o[10] slave2_wb_data_o[11] slave2_wb_data_o[12]
+ slave2_wb_data_o[13] slave2_wb_data_o[14] slave2_wb_data_o[15] slave2_wb_data_o[16]
+ slave2_wb_data_o[17] slave2_wb_data_o[18] slave2_wb_data_o[19] slave2_wb_data_o[1]
+ slave2_wb_data_o[20] slave2_wb_data_o[21] slave2_wb_data_o[22] slave2_wb_data_o[23]
+ slave2_wb_data_o[24] slave2_wb_data_o[25] slave2_wb_data_o[26] slave2_wb_data_o[27]
+ slave2_wb_data_o[28] slave2_wb_data_o[29] slave2_wb_data_o[2] slave2_wb_data_o[30]
+ slave2_wb_data_o[31] slave2_wb_data_o[3] slave2_wb_data_o[4] slave2_wb_data_o[5]
+ slave2_wb_data_o[6] slave2_wb_data_o[7] slave2_wb_data_o[8] slave2_wb_data_o[9]
+ slave2_wb_error_o slave2_wb_sel_i[0] slave2_wb_sel_i[1] slave2_wb_sel_i[2] slave2_wb_sel_i[3]
+ slave2_wb_stall_o slave2_wb_stb_i slave2_wb_we_i slave3_wb_ack_o slave3_wb_adr_i[0]
+ slave3_wb_adr_i[10] slave3_wb_adr_i[11] slave3_wb_adr_i[12] slave3_wb_adr_i[13]
+ slave3_wb_adr_i[14] slave3_wb_adr_i[15] slave3_wb_adr_i[16] slave3_wb_adr_i[17]
+ slave3_wb_adr_i[18] slave3_wb_adr_i[19] slave3_wb_adr_i[1] slave3_wb_adr_i[20] slave3_wb_adr_i[21]
+ slave3_wb_adr_i[22] slave3_wb_adr_i[23] slave3_wb_adr_i[2] slave3_wb_adr_i[3] slave3_wb_adr_i[4]
+ slave3_wb_adr_i[5] slave3_wb_adr_i[6] slave3_wb_adr_i[7] slave3_wb_adr_i[8] slave3_wb_adr_i[9]
+ slave3_wb_cyc_i slave3_wb_data_i[0] slave3_wb_data_i[10] slave3_wb_data_i[11] slave3_wb_data_i[12]
+ slave3_wb_data_i[13] slave3_wb_data_i[14] slave3_wb_data_i[15] slave3_wb_data_i[16]
+ slave3_wb_data_i[17] slave3_wb_data_i[18] slave3_wb_data_i[19] slave3_wb_data_i[1]
+ slave3_wb_data_i[20] slave3_wb_data_i[21] slave3_wb_data_i[22] slave3_wb_data_i[23]
+ slave3_wb_data_i[24] slave3_wb_data_i[25] slave3_wb_data_i[26] slave3_wb_data_i[27]
+ slave3_wb_data_i[28] slave3_wb_data_i[29] slave3_wb_data_i[2] slave3_wb_data_i[30]
+ slave3_wb_data_i[31] slave3_wb_data_i[3] slave3_wb_data_i[4] slave3_wb_data_i[5]
+ slave3_wb_data_i[6] slave3_wb_data_i[7] slave3_wb_data_i[8] slave3_wb_data_i[9]
+ slave3_wb_data_o[0] slave3_wb_data_o[10] slave3_wb_data_o[11] slave3_wb_data_o[12]
+ slave3_wb_data_o[13] slave3_wb_data_o[14] slave3_wb_data_o[15] slave3_wb_data_o[16]
+ slave3_wb_data_o[17] slave3_wb_data_o[18] slave3_wb_data_o[19] slave3_wb_data_o[1]
+ slave3_wb_data_o[20] slave3_wb_data_o[21] slave3_wb_data_o[22] slave3_wb_data_o[23]
+ slave3_wb_data_o[24] slave3_wb_data_o[25] slave3_wb_data_o[26] slave3_wb_data_o[27]
+ slave3_wb_data_o[28] slave3_wb_data_o[29] slave3_wb_data_o[2] slave3_wb_data_o[30]
+ slave3_wb_data_o[31] slave3_wb_data_o[3] slave3_wb_data_o[4] slave3_wb_data_o[5]
+ slave3_wb_data_o[6] slave3_wb_data_o[7] slave3_wb_data_o[8] slave3_wb_data_o[9]
+ slave3_wb_error_o slave3_wb_sel_i[0] slave3_wb_sel_i[1] slave3_wb_sel_i[2] slave3_wb_sel_i[3]
+ slave3_wb_stall_o slave3_wb_stb_i slave3_wb_we_i slave4_wb_ack_o slave4_wb_adr_i[0]
+ slave4_wb_adr_i[10] slave4_wb_adr_i[11] slave4_wb_adr_i[12] slave4_wb_adr_i[13]
+ slave4_wb_adr_i[14] slave4_wb_adr_i[15] slave4_wb_adr_i[16] slave4_wb_adr_i[17]
+ slave4_wb_adr_i[18] slave4_wb_adr_i[19] slave4_wb_adr_i[1] slave4_wb_adr_i[20] slave4_wb_adr_i[21]
+ slave4_wb_adr_i[22] slave4_wb_adr_i[23] slave4_wb_adr_i[2] slave4_wb_adr_i[3] slave4_wb_adr_i[4]
+ slave4_wb_adr_i[5] slave4_wb_adr_i[6] slave4_wb_adr_i[7] slave4_wb_adr_i[8] slave4_wb_adr_i[9]
+ slave4_wb_cyc_i slave4_wb_data_i[0] slave4_wb_data_i[10] slave4_wb_data_i[11] slave4_wb_data_i[12]
+ slave4_wb_data_i[13] slave4_wb_data_i[14] slave4_wb_data_i[15] slave4_wb_data_i[16]
+ slave4_wb_data_i[17] slave4_wb_data_i[18] slave4_wb_data_i[19] slave4_wb_data_i[1]
+ slave4_wb_data_i[20] slave4_wb_data_i[21] slave4_wb_data_i[22] slave4_wb_data_i[23]
+ slave4_wb_data_i[24] slave4_wb_data_i[25] slave4_wb_data_i[26] slave4_wb_data_i[27]
+ slave4_wb_data_i[28] slave4_wb_data_i[29] slave4_wb_data_i[2] slave4_wb_data_i[30]
+ slave4_wb_data_i[31] slave4_wb_data_i[3] slave4_wb_data_i[4] slave4_wb_data_i[5]
+ slave4_wb_data_i[6] slave4_wb_data_i[7] slave4_wb_data_i[8] slave4_wb_data_i[9]
+ slave4_wb_data_o[0] slave4_wb_data_o[10] slave4_wb_data_o[11] slave4_wb_data_o[12]
+ slave4_wb_data_o[13] slave4_wb_data_o[14] slave4_wb_data_o[15] slave4_wb_data_o[16]
+ slave4_wb_data_o[17] slave4_wb_data_o[18] slave4_wb_data_o[19] slave4_wb_data_o[1]
+ slave4_wb_data_o[20] slave4_wb_data_o[21] slave4_wb_data_o[22] slave4_wb_data_o[23]
+ slave4_wb_data_o[24] slave4_wb_data_o[25] slave4_wb_data_o[26] slave4_wb_data_o[27]
+ slave4_wb_data_o[28] slave4_wb_data_o[29] slave4_wb_data_o[2] slave4_wb_data_o[30]
+ slave4_wb_data_o[31] slave4_wb_data_o[3] slave4_wb_data_o[4] slave4_wb_data_o[5]
+ slave4_wb_data_o[6] slave4_wb_data_o[7] slave4_wb_data_o[8] slave4_wb_data_o[9]
+ slave4_wb_error_o slave4_wb_sel_i[0] slave4_wb_sel_i[1] slave4_wb_sel_i[2] slave4_wb_sel_i[3]
+ slave4_wb_stall_o slave4_wb_stb_i slave4_wb_we_i vccd1 vssd1 wb_clk_i wb_rst_i
XFILLER_246_109 vssd1 vssd1 vccd1 vccd1 sky130_fd_sc_hd__decap_12
XFILLER_286_289 vssd1 vssd1 vccd1 vccd1 sky130_fd_sc_hd__decap_12
XFILLER_267_470 vssd1 vssd1 vccd1 vccd1 sky130_fd_sc_hd__decap_12
XFILLER_239_161 vssd1 vssd1 vccd1 vccd1 sky130_fd_sc_hd__decap_6
XFILLER_223_21 vssd1 vssd1 vccd1 vccd1 sky130_fd_sc_hd__decap_4