*SPEF "ieee 1481-1999"
*DESIGN "Blink"
*DATE "11:11:11 Fri 11 11, 1111"
*VENDOR "OpenRCX"
*PROGRAM "Parallel Extraction"
*VERSION "1.0"
*DESIGN_FLOW "NAME_SCOPE LOCAL" "PIN_CAP NONE"
*DIVIDER /
*DELIMITER :
*BUS_DELIMITER []
*T_UNIT 1 NS
*C_UNIT 1 PF
*R_UNIT 1 OHM
*L_UNIT 1 HENRY

*NAME_MAP
*1 blink
*2 clk
*3 nrst
*6 _000_
*7 _001_
*8 _002_
*9 _003_
*10 _004_
*11 _005_
*12 _006_
*13 _007_
*14 _008_
*15 _009_
*16 _010_
*17 _011_
*18 _012_
*19 _013_
*20 _014_
*21 _015_
*22 _016_
*23 _017_
*24 _018_
*25 _019_
*26 _020_
*27 _021_
*28 _022_
*29 _023_
*30 _024_
*31 _025_
*32 _026_
*33 _027_
*34 _028_
*35 _029_
*36 _030_
*37 _031_
*38 _032_
*39 _033_
*40 _034_
*41 _035_
*42 _036_
*43 _037_
*44 _038_
*45 _039_
*46 _040_
*47 _041_
*48 _042_
*49 _043_
*50 _044_
*51 _045_
*52 _046_
*53 _047_
*54 _048_
*55 _049_
*56 _050_
*57 _051_
*58 _052_
*59 _053_
*60 _054_
*61 _055_
*62 _056_
*63 _057_
*64 _058_
*65 _059_
*66 _060_
*67 _061_
*68 _062_
*69 _063_
*70 _064_
*71 _065_
*72 _066_
*73 _067_
*74 _068_
*75 _069_
*76 _070_
*77 _071_
*78 _072_
*79 _073_
*80 _074_
*81 _075_
*82 _076_
*83 _077_
*84 _078_
*85 _079_
*86 _080_
*87 _081_
*88 _082_
*89 _083_
*90 _084_
*91 _085_
*92 _086_
*93 _087_
*94 clknet_0_clk
*95 clknet_1_0_0_clk
*96 clknet_1_1_0_clk
*97 ctr\.counter\[0\]
*98 ctr\.counter\[10\]
*99 ctr\.counter\[11\]
*100 ctr\.counter\[12\]
*101 ctr\.counter\[13\]
*102 ctr\.counter\[14\]
*103 ctr\.counter\[15\]
*104 ctr\.counter\[16\]
*105 ctr\.counter\[17\]
*106 ctr\.counter\[18\]
*107 ctr\.counter\[19\]
*108 ctr\.counter\[1\]
*109 ctr\.counter\[20\]
*110 ctr\.counter\[21\]
*111 ctr\.counter\[22\]
*112 ctr\.counter\[23\]
*113 ctr\.counter\[24\]
*114 ctr\.counter\[2\]
*115 ctr\.counter\[3\]
*116 ctr\.counter\[4\]
*117 ctr\.counter\[5\]
*118 ctr\.counter\[6\]
*119 ctr\.counter\[7\]
*120 ctr\.counter\[8\]
*121 ctr\.counter\[9\]
*122 net1
*123 net2
*124 ANTENNA_clkbuf_0_clk_A
*125 ANTENNA_input1_A
*126 FILLER_0_11
*127 FILLER_0_17
*128 FILLER_0_24
*129 FILLER_0_29
*130 FILLER_0_3
*131 FILLER_0_37
*132 FILLER_0_41
*133 FILLER_0_46
*134 FILLER_0_54
*135 FILLER_0_61
*136 FILLER_0_68
*137 FILLER_0_75
*138 FILLER_0_83
*139 FILLER_0_85
*140 FILLER_0_97
*141 FILLER_10_10
*142 FILLER_10_24
*143 FILLER_10_29
*144 FILLER_10_48
*145 FILLER_10_68
*146 FILLER_10_79
*147 FILLER_10_83
*148 FILLER_10_95
*149 FILLER_11_101
*150 FILLER_11_12
*151 FILLER_11_26
*152 FILLER_11_3
*153 FILLER_11_46
*154 FILLER_11_52
*155 FILLER_11_73
*156 FILLER_11_93
*157 FILLER_12_13
*158 FILLER_12_24
*159 FILLER_12_29
*160 FILLER_12_3
*161 FILLER_12_38
*162 FILLER_12_58
*163 FILLER_12_78
*164 FILLER_12_92
*165 FILLER_12_99
*166 FILLER_13_101
*167 FILLER_13_14
*168 FILLER_13_22
*169 FILLER_13_3
*170 FILLER_13_32
*171 FILLER_13_52
*172 FILLER_13_7
*173 FILLER_13_73
*174 FILLER_13_84
*175 FILLER_13_93
*176 FILLER_14_10
*177 FILLER_14_17
*178 FILLER_14_24
*179 FILLER_14_29
*180 FILLER_14_3
*181 FILLER_14_33
*182 FILLER_14_41
*183 FILLER_14_61
*184 FILLER_14_72
*185 FILLER_14_80
*186 FILLER_14_88
*187 FILLER_14_95
*188 FILLER_15_100
*189 FILLER_15_13
*190 FILLER_15_20
*191 FILLER_15_27
*192 FILLER_15_35
*193 FILLER_15_46
*194 FILLER_15_54
*195 FILLER_15_64
*196 FILLER_15_73
*197 FILLER_15_81
*198 FILLER_15_88
*199 FILLER_16_17
*200 FILLER_16_24
*201 FILLER_16_32
*202 FILLER_16_39
*203 FILLER_16_48
*204 FILLER_16_5
*205 FILLER_16_62
*206 FILLER_16_71
*207 FILLER_16_78
*208 FILLER_16_85
*209 FILLER_16_97
*210 FILLER_1_102
*211 FILLER_1_15
*212 FILLER_1_24
*213 FILLER_1_28
*214 FILLER_1_3
*215 FILLER_1_33
*216 FILLER_1_42
*217 FILLER_1_51
*218 FILLER_1_55
*219 FILLER_1_57
*220 FILLER_1_67
*221 FILLER_1_75
*222 FILLER_1_82
*223 FILLER_1_94
*224 FILLER_2_100
*225 FILLER_2_14
*226 FILLER_2_21
*227 FILLER_2_27
*228 FILLER_2_29
*229 FILLER_2_3
*230 FILLER_2_33
*231 FILLER_2_39
*232 FILLER_2_50
*233 FILLER_2_61
*234 FILLER_2_71
*235 FILLER_2_79
*236 FILLER_2_83
*237 FILLER_2_88
*238 FILLER_3_12
*239 FILLER_3_21
*240 FILLER_3_3
*241 FILLER_3_32
*242 FILLER_3_52
*243 FILLER_3_57
*244 FILLER_3_70
*245 FILLER_3_79
*246 FILLER_3_87
*247 FILLER_3_99
*248 FILLER_4_102
*249 FILLER_4_16
*250 FILLER_4_24
*251 FILLER_4_29
*252 FILLER_4_3
*253 FILLER_4_33
*254 FILLER_4_50
*255 FILLER_4_56
*256 FILLER_4_73
*257 FILLER_4_8
*258 FILLER_4_80
*259 FILLER_4_85
*260 FILLER_4_90
*261 FILLER_4_98
*262 FILLER_5_101
*263 FILLER_5_18
*264 FILLER_5_29
*265 FILLER_5_3
*266 FILLER_5_49
*267 FILLER_5_55
*268 FILLER_5_73
*269 FILLER_5_84
*270 FILLER_5_9
*271 FILLER_5_93
*272 FILLER_6_13
*273 FILLER_6_24
*274 FILLER_6_29
*275 FILLER_6_3
*276 FILLER_6_35
*277 FILLER_6_52
*278 FILLER_6_56
*279 FILLER_6_7
*280 FILLER_6_73
*281 FILLER_6_81
*282 FILLER_6_92
*283 FILLER_6_99
*284 FILLER_7_102
*285 FILLER_7_12
*286 FILLER_7_3
*287 FILLER_7_32
*288 FILLER_7_52
*289 FILLER_7_57
*290 FILLER_7_74
*291 FILLER_7_94
*292 FILLER_8_24
*293 FILLER_8_3
*294 FILLER_8_34
*295 FILLER_8_42
*296 FILLER_8_50
*297 FILLER_8_7
*298 FILLER_8_71
*299 FILLER_8_75
*300 FILLER_8_80
*301 FILLER_8_92
*302 FILLER_8_99
*303 FILLER_9_101
*304 FILLER_9_27
*305 FILLER_9_47
*306 FILLER_9_55
*307 FILLER_9_7
*308 FILLER_9_73
*309 FILLER_9_93
*310 PHY_0
*311 PHY_1
*312 PHY_10
*313 PHY_11
*314 PHY_12
*315 PHY_13
*316 PHY_14
*317 PHY_15
*318 PHY_16
*319 PHY_17
*320 PHY_18
*321 PHY_19
*322 PHY_2
*323 PHY_20
*324 PHY_21
*325 PHY_22
*326 PHY_23
*327 PHY_24
*328 PHY_25
*329 PHY_26
*330 PHY_27
*331 PHY_28
*332 PHY_29
*333 PHY_3
*334 PHY_30
*335 PHY_31
*336 PHY_32
*337 PHY_33
*338 PHY_4
*339 PHY_5
*340 PHY_6
*341 PHY_7
*342 PHY_8
*343 PHY_9
*344 TAP_34
*345 TAP_35
*346 TAP_36
*347 TAP_37
*348 TAP_38
*349 TAP_39
*350 TAP_40
*351 TAP_41
*352 TAP_42
*353 TAP_43
*354 TAP_44
*355 TAP_45
*356 TAP_46
*357 TAP_47
*358 TAP_48
*359 TAP_49
*360 TAP_50
*361 TAP_51
*362 TAP_52
*363 TAP_53
*364 TAP_54
*365 TAP_55
*366 TAP_56
*367 TAP_57
*368 TAP_58
*369 TAP_59
*370 TAP_60
*371 TAP_61
*372 _088_
*373 _089_
*374 _090_
*375 _091_
*376 _092_
*377 _093_
*378 _094_
*379 _095_
*380 _096_
*381 _097_
*382 _098_
*383 _099_
*384 _100_
*385 _101_
*386 _102_
*387 _103_
*388 _104_
*389 _105_
*390 _106_
*391 _107_
*392 _108_
*393 _109_
*394 _110_
*395 _111_
*396 _112_
*397 _113_
*398 _114_
*399 _115_
*400 _116_
*401 _117_
*402 _118_
*403 _119_
*404 _120_
*405 _121_
*406 _122_
*407 _123_
*408 _124_
*409 _125_
*410 _126_
*411 _127_
*412 _128_
*413 _129_
*414 _130_
*415 _131_
*416 _132_
*417 _133_
*418 _134_
*419 _135_
*420 _136_
*421 _137_
*422 _138_
*423 _139_
*424 _140_
*425 _141_
*426 _142_
*427 _143_
*428 _144_
*429 _145_
*430 _146_
*431 _147_
*432 _148_
*433 _149_
*434 _150_
*435 _151_
*436 _152_
*437 _153_
*438 _154_
*439 _155_
*440 _156_
*441 _157_
*442 _158_
*443 _159_
*444 _160_
*445 _161_
*446 _162_
*447 _163_
*448 _164_
*449 _165_
*450 _166_
*451 _167_
*452 _168_
*453 _169_
*454 _170_
*455 _171_
*456 _172_
*457 _173_
*458 _174_
*459 _175_
*460 _176_
*461 _177_
*462 _178_
*463 _179_
*464 _180_
*465 _181_
*466 _182_
*467 _183_
*468 _184_
*469 _185_
*470 _186_
*471 _187_
*472 _188_
*473 _189_
*474 _190_
*475 _191_
*476 _192_
*477 _193_
*478 _194_
*479 _195_
*480 _196_
*481 _197_
*482 _198_
*483 _199_
*484 _200_
*485 _201_
*486 clkbuf_0_clk
*487 clkbuf_1_0_0_clk
*488 clkbuf_1_1_0_clk
*489 input1
*490 output2

*PORTS
blink O
clk I
nrst I

*D_NET *1 0.00244421
*CONN
*P blink O
*I *490:X O *D sky130_fd_sc_hd__buf_2
*CAP
1 blink 0.000927489
2 *490:X 0.000927489
3 blink *402:B 0.000278358
4 blink *490:A 0.00031087
5 blink *81:22 0
6 blink *96:76 0
*RES
1 *490:X blink 36.8252 
*END

*D_NET *2 0.00857279
*CONN
*P clk I
*I *124:DIODE I *D sky130_fd_sc_hd__diode_2
*I *486:A I *D sky130_fd_sc_hd__clkbuf_16
*CAP
1 clk 0.00229563
2 *124:DIODE 0.00032907
3 *486:A 1.39384e-05
4 *2:14 0.00263864
5 *124:DIODE *12:8 1.3706e-05
6 *124:DIODE *56:36 0.000520003
7 *124:DIODE *106:16 0
8 *486:A *374:C 2.57986e-05
9 *486:A *487:A 6.3657e-05
10 *2:14 *379:C 0.000473322
11 *2:14 *412:A 0.00157263
12 *2:14 *423:A_N 0.000129098
13 *2:14 *468:D 0.000111241
14 *2:14 *472:CLK 1.41418e-05
15 *2:14 *12:8 0.000136774
16 *2:14 *19:17 0.000109023
17 *2:14 *62:49 8.41829e-05
18 *2:14 *65:8 0
19 *2:14 *86:32 4.19382e-05
20 *2:14 *98:8 0
21 *2:14 *106:16 0
*RES
1 clk *2:14 45.4802 
2 *2:14 *486:A 14.4725 
3 *2:14 *124:DIODE 23.8862 
*END

*D_NET *3 0.000699495
*CONN
*P nrst I
*I *125:DIODE I *D sky130_fd_sc_hd__diode_2
*I *489:A I *D sky130_fd_sc_hd__dlymetal6s2s_1
*CAP
1 nrst 0.00023167
2 *125:DIODE 0.000105753
3 *489:A 0
4 *3:8 0.000337423
5 *125:DIODE *398:A 3.67528e-06
6 *125:DIODE *63:58 0
7 *3:8 *398:A 2.09735e-05
*RES
1 nrst *3:8 5.25301 
2 *3:8 *489:A 13.7491 
3 *3:8 *125:DIODE 16.4116 
*END

*D_NET *6 0.00328888
*CONN
*I *485:D I *D sky130_fd_sc_hd__dfxtp_1
*I *484:D I *D sky130_fd_sc_hd__dfxtp_1
*I *386:Y O *D sky130_fd_sc_hd__nor2_1
*CAP
1 *485:D 0.00044132
2 *484:D 0.000255336
3 *386:Y 0.000183604
4 *6:7 0.00088026
5 *484:D *11:15 1.60502e-06
6 *484:D *58:15 8.92089e-05
7 *484:D *76:32 0.000544783
8 *484:D *81:22 9.24241e-05
9 *485:D *378:D 0
10 *485:D *63:10 0
11 *485:D *66:16 6.14756e-06
12 *485:D *69:14 2.60537e-05
13 *485:D *81:22 5.6821e-05
14 *485:D *96:76 0.000164158
15 *485:D *96:85 0.000342096
16 *485:D *96:92 0.000103511
17 *6:7 *386:A 1.00846e-05
18 *6:7 *386:B 9.14669e-05
*RES
1 *386:Y *6:7 16.691 
2 *6:7 *484:D 21.9048 
3 *6:7 *485:D 27.1932 
*END

*D_NET *7 0.00330407
*CONN
*I *460:D I *D sky130_fd_sc_hd__dfxtp_1
*I *388:Y O *D sky130_fd_sc_hd__nor2_1
*CAP
1 *460:D 0
2 *388:Y 0.000636663
3 *7:11 0.000636663
4 *7:11 *372:C 0.000311593
5 *7:11 *388:B 0.000139572
6 *7:11 *394:A1 1.50389e-06
7 *7:11 *403:A 1.43848e-05
8 *7:11 *406:A1 0.000340694
9 *7:11 *406:A2 7.83643e-05
10 *7:11 *406:B1 4.91225e-06
11 *7:11 *460:CLK 1.87611e-05
12 *7:11 *474:D 1.75925e-05
13 *7:11 *481:CLK 0.000140502
14 *7:11 *12:8 0
15 *7:11 *71:19 1.33885e-05
16 *7:11 *78:73 0.000482121
17 *7:11 *80:15 0.000220183
18 *7:11 *81:22 1.5714e-05
19 *7:11 *95:100 1.12605e-05
20 *7:11 *95:109 0.000101246
21 *7:11 *108:8 9.84665e-05
22 *7:11 *115:7 2.04854e-05
*RES
1 *388:Y *7:11 43.3175 
2 *7:11 *460:D 9.24915 
*END

*D_NET *8 0.0022816
*CONN
*I *461:D I *D sky130_fd_sc_hd__dfxtp_1
*I *392:Y O *D sky130_fd_sc_hd__a21oi_1
*CAP
1 *461:D 0.000799977
2 *392:Y 0.000799977
3 *461:D *392:A1 1.00937e-05
4 *461:D *392:B1 4.66876e-05
5 *461:D *477:CLK 0.000264586
6 *461:D *24:9 1.41531e-05
7 *461:D *95:66 0.000121727
8 *461:D *105:11 0.000224395
*RES
1 *392:Y *461:D 36.7279 
*END

*D_NET *9 0.00294674
*CONN
*I *462:D I *D sky130_fd_sc_hd__dfxtp_1
*I *395:Y O *D sky130_fd_sc_hd__nor2_1
*CAP
1 *462:D 0.000433478
2 *395:Y 0.000433478
3 *462:D *387:A 3.60363e-05
4 *462:D *392:B1 0
5 *462:D *395:A 3.00073e-05
6 *462:D *396:A 0.000159023
7 *462:D *397:A3 4.02319e-05
8 *462:D *401:A 0.000805121
9 *462:D *401:B 5.47506e-05
10 *462:D *462:CLK 0.000133353
11 *462:D *71:48 4.46284e-06
12 *462:D *76:20 0.000119763
13 *462:D *78:27 4.79321e-06
14 *462:D *97:11 0.00069224
*RES
1 *395:Y *462:D 46.8603 
*END

*D_NET *10 0.00517213
*CONN
*I *463:D I *D sky130_fd_sc_hd__dfxtp_1
*I *400:X O *D sky130_fd_sc_hd__clkbuf_1
*CAP
1 *463:D 0.00233553
2 *400:X 0.00233553
3 *463:D *374:D 0
4 *463:D *388:A 1.3439e-05
5 *463:D *389:A 3.18826e-06
6 *463:D *400:A 1.1573e-05
7 *463:D *407:C 0
8 *463:D *434:C1 3.17436e-05
9 *463:D *443:A 0
10 *463:D *443:B 0.000388881
11 *463:D *456:B 0
12 *463:D *474:D 8.62976e-06
13 *463:D *72:27 2.09449e-06
14 *463:D *80:15 0
15 *463:D *81:22 0
16 *463:D *112:18 4.15236e-05
*RES
1 *400:X *463:D 42.595 
*END

*D_NET *11 0.00673731
*CONN
*I *464:D I *D sky130_fd_sc_hd__dfxtp_1
*I *404:X O *D sky130_fd_sc_hd__clkbuf_1
*CAP
1 *464:D 0.000934044
2 *404:X 0.00135779
3 *11:15 0.00229183
4 *464:D *464:CLK 9.03847e-05
5 *464:D *467:D 2.54559e-05
6 *464:D *76:32 4.9737e-05
7 *464:D *96:26 0.000129011
8 *11:15 *378:B 0.000501745
9 *11:15 *454:A1 0.000156955
10 *11:15 *454:B1 4.87096e-05
11 *11:15 *454:B2 4.87301e-05
12 *11:15 *28:15 3.58208e-05
13 *11:15 *29:8 0.000439211
14 *11:15 *63:10 0.000544148
15 *11:15 *71:15 3.92275e-05
16 *11:15 *76:32 3.66059e-06
17 *11:15 *96:26 1.80862e-05
18 *11:15 *111:8 0
19 *11:15 *113:26 2.11533e-05
20 *484:D *11:15 1.60502e-06
*RES
1 *404:X *11:15 49.9945 
2 *11:15 *464:D 26.9482 
*END

*D_NET *12 0.00435426
*CONN
*I *465:D I *D sky130_fd_sc_hd__dfxtp_1
*I *406:Y O *D sky130_fd_sc_hd__a221oi_1
*CAP
1 *465:D 5.56771e-06
2 *406:Y 0.00126081
3 *12:8 0.00126638
4 *465:D *40:7 3.18826e-06
5 *465:D *119:18 2.13584e-05
6 *12:8 *374:B 4.04091e-05
7 *12:8 *406:A2 8.9616e-06
8 *12:8 *406:B1 3.96379e-06
9 *12:8 *406:B2 2.16355e-05
10 *12:8 *406:C1 2.39902e-06
11 *12:8 *444:A1 0
12 *12:8 *56:36 0.000822306
13 *12:8 *63:58 1.19277e-05
14 *12:8 *65:8 0
15 *12:8 *71:19 0.00071051
16 *12:8 *78:73 2.33193e-05
17 *12:8 *95:20 0
18 *12:8 *95:22 0
19 *12:8 *95:61 0
20 *12:8 *95:78 0
21 *12:8 *106:16 0
22 *12:8 *108:8 0
23 *12:8 *118:8 1.05272e-06
24 *124:DIODE *12:8 1.3706e-05
25 *2:14 *12:8 0.000136774
26 *7:11 *12:8 0
*RES
1 *406:Y *12:8 48.148 
2 *12:8 *465:D 13.9722 
*END

*D_NET *13 0.00360634
*CONN
*I *466:D I *D sky130_fd_sc_hd__dfxtp_1
*I *411:X O *D sky130_fd_sc_hd__clkbuf_1
*CAP
1 *466:D 0
2 *411:X 0.00109076
3 *13:15 0.00109076
4 *13:15 *376:C 1.81168e-05
5 *13:15 *405:A 0
6 *13:15 *415:A 0
7 *13:15 *420:A2 0.000456253
8 *13:15 *421:A 6.78596e-05
9 *13:15 *421:C 8.98169e-05
10 *13:15 *423:A_N 4.00429e-05
11 *13:15 *468:D 0.000124658
12 *13:15 *44:20 0.00039984
13 *13:15 *86:32 0
14 *13:15 *88:41 4.2898e-05
15 *13:15 *89:42 1.48291e-05
16 *13:15 *95:36 0.000170504
*RES
1 *411:X *13:15 42.1562 
2 *13:15 *466:D 9.24915 
*END

*D_NET *14 0.00697697
*CONN
*I *467:D I *D sky130_fd_sc_hd__dfxtp_1
*I *415:Y O *D sky130_fd_sc_hd__nor2_1
*CAP
1 *467:D 0.000667471
2 *415:Y 0.000209261
3 *14:7 0.000876732
4 *467:D *413:A 0.000101148
5 *467:D *456:B 0.000857524
6 *467:D *458:A2 4.58861e-05
7 *467:D *471:D 0.000966039
8 *467:D *65:8 9.99386e-06
9 *467:D *86:32 3.91685e-05
10 *467:D *96:26 0.000106635
11 *467:D *112:18 0
12 *467:D *116:46 1.91391e-05
13 *14:7 *415:A 0.000594588
14 *14:7 *426:A 9.75314e-05
15 *14:7 *431:B1 4.33655e-05
16 *14:7 *439:A1 6.92705e-05
17 *14:7 *439:A2 1.00937e-05
18 *14:7 *442:B1 2.41483e-05
19 *14:7 *34:15 0.0019551
20 *14:7 *78:47 0.000258416
21 *464:D *467:D 2.54559e-05
*RES
1 *415:Y *14:7 34.4383 
2 *14:7 *467:D 39.1622 
*END

*D_NET *15 0.00255632
*CONN
*I *468:D I *D sky130_fd_sc_hd__dfxtp_1
*I *418:Y O *D sky130_fd_sc_hd__nor2_1
*CAP
1 *468:D 0.000601629
2 *418:Y 0.000601629
3 *468:D *405:A 0
4 *468:D *423:A_N 0.000300565
5 *468:D *436:A_N 3.13149e-05
6 *468:D *441:B 0.000207883
7 *468:D *472:CLK 3.98879e-05
8 *468:D *33:11 2.12616e-05
9 *468:D *62:49 1.9529e-05
10 *468:D *86:17 0.000166842
11 *468:D *86:32 0.000107427
12 *468:D *89:42 6.86306e-05
13 *468:D *105:11 0.00014391
14 *468:D *120:10 9.91708e-06
15 *2:14 *468:D 0.000111241
16 *13:15 *468:D 0.000124658
*RES
1 *418:Y *468:D 47.564 
*END

*D_NET *16 0.00287399
*CONN
*I *469:D I *D sky130_fd_sc_hd__dfxtp_1
*I *420:Y O *D sky130_fd_sc_hd__a21oi_1
*CAP
1 *469:D 0.000664302
2 *420:Y 0.000664302
3 *469:D *373:A 0.000109809
4 *469:D *405:A 0.000116236
5 *469:D *415:B 0
6 *469:D *420:A1 6.50727e-05
7 *469:D *423:A_N 3.76832e-05
8 *469:D *423:B 0.000357806
9 *469:D *76:32 6.67095e-06
10 *469:D *85:13 0.000153225
11 *469:D *88:26 7.77309e-06
12 *469:D *93:11 0.000634262
13 *469:D *120:10 8.92568e-06
14 *469:D *120:22 4.79213e-05
*RES
1 *420:Y *469:D 49.3783 
*END

*D_NET *17 0.00159495
*CONN
*I *470:D I *D sky130_fd_sc_hd__dfxtp_1
*I *424:X O *D sky130_fd_sc_hd__clkbuf_1
*CAP
1 *470:D 0.000198894
2 *424:X 0.000198894
3 *470:D *470:CLK 7.61241e-05
4 *470:D *66:16 0.000258755
5 *470:D *113:26 0.000263563
6 *470:D *116:46 0.000396637
7 *470:D *119:18 0.000202086
*RES
1 *424:X *470:D 37.071 
*END

*D_NET *18 0.00623026
*CONN
*I *471:D I *D sky130_fd_sc_hd__dfxtp_1
*I *426:Y O *D sky130_fd_sc_hd__nor2_1
*CAP
1 *471:D 0.000497671
2 *426:Y 0.00179891
3 *18:11 0.00229658
4 *471:D *379:C 1.87611e-05
5 *471:D *475:D 6.88792e-05
6 *471:D *34:15 0
7 *471:D *60:29 7.77309e-06
8 *471:D *62:24 0.000575647
9 *467:D *471:D 0.000966039
*RES
1 *426:Y *18:11 49.2918 
2 *18:11 *471:D 33.2448 
*END

*D_NET *19 0.00419304
*CONN
*I *472:D I *D sky130_fd_sc_hd__dfxtp_1
*I *430:Y O *D sky130_fd_sc_hd__nor2_1
*CAP
1 *472:D 0
2 *430:Y 0.00156363
3 *19:17 0.00156363
4 *19:17 *379:B 0
5 *19:17 *430:B 1.41307e-05
6 *19:17 *431:A1 1.5714e-05
7 *19:17 *434:C1 1.79239e-05
8 *19:17 *456:B 0.00012291
9 *19:17 *472:CLK 0.000162935
10 *19:17 *474:D 0.000155556
11 *19:17 *29:8 1.91246e-05
12 *19:17 *33:11 0.000107101
13 *19:17 *36:35 4.31539e-05
14 *19:17 *65:8 0.000127464
15 *19:17 *86:32 3.65817e-05
16 *19:17 *100:13 0.000134153
17 *2:14 *19:17 0.000109023
*RES
1 *430:Y *19:17 42.452 
2 *19:17 *472:D 9.24915 
*END

*D_NET *20 0.00451956
*CONN
*I *473:D I *D sky130_fd_sc_hd__dfxtp_1
*I *432:Y O *D sky130_fd_sc_hd__a21oi_1
*CAP
1 *473:D 0.000226129
2 *432:Y 0.00107955
3 *20:10 0.00130568
4 *20:10 *374:A 0
5 *20:10 *429:A2 0.000451898
6 *20:10 *429:B1 0.000296903
7 *20:10 *432:A2 9.78277e-05
8 *20:10 *432:B1 4.26333e-05
9 *20:10 *33:11 0.000232247
10 *20:10 *41:17 4.45028e-05
11 *20:10 *55:8 0
12 *20:10 *62:10 3.88655e-06
13 *20:10 *69:14 0
14 *20:10 *99:16 3.89004e-05
15 *20:10 *102:11 0.000699403
16 *20:10 *106:16 0
17 *20:10 *119:18 0
*RES
1 *432:Y *20:10 49.2035 
2 *20:10 *473:D 13.909 
*END

*D_NET *21 0.00571776
*CONN
*I *474:D I *D sky130_fd_sc_hd__dfxtp_1
*I *434:Y O *D sky130_fd_sc_hd__a211oi_1
*CAP
1 *474:D 0.00199873
2 *434:Y 0.00199873
3 *474:D *379:B 0
4 *474:D *406:B2 8.47856e-05
5 *474:D *56:36 5.59587e-06
6 *474:D *71:19 0.000187618
7 *474:D *78:45 0.000231731
8 *474:D *78:73 0.000144546
9 *474:D *81:22 0.000621649
10 *474:D *86:32 5.9419e-05
11 *474:D *99:16 0.000101593
12 *474:D *112:18 0.000101593
13 *463:D *474:D 8.62976e-06
14 *7:11 *474:D 1.75925e-05
15 *19:17 *474:D 0.000155556
*RES
1 *434:Y *474:D 46.353 
*END

*D_NET *22 0.00207909
*CONN
*I *475:D I *D sky130_fd_sc_hd__dfxtp_1
*I *437:X O *D sky130_fd_sc_hd__clkbuf_1
*CAP
1 *475:D 0.000459542
2 *437:X 0.000459542
3 *475:D *434:C1 2.37478e-05
4 *475:D *458:A1 8.4761e-05
5 *475:D *33:11 0.000165181
6 *475:D *34:15 7.50872e-05
7 *475:D *55:7 0.000111708
8 *475:D *60:29 0.000275361
9 *475:D *62:24 3.74738e-05
10 *475:D *112:18 0.000317811
11 *471:D *475:D 6.88792e-05
*RES
1 *437:X *475:D 42.4612 
*END

*D_NET *23 0.0025157
*CONN
*I *476:D I *D sky130_fd_sc_hd__dfxtp_1
*I *440:Y O *D sky130_fd_sc_hd__nor2_1
*CAP
1 *476:D 0.000568272
2 *440:Y 0.000568272
3 *476:D *407:B 0.000504133
4 *476:D *414:A2 1.75625e-05
5 *476:D *415:B 0
6 *476:D *416:B 1.3813e-05
7 *476:D *417:A1 0.00033617
8 *476:D *418:B 0.000116971
9 *476:D *420:A2 4.43395e-05
10 *476:D *476:CLK 7.02539e-05
11 *476:D *41:17 0.000154991
12 *476:D *43:11 6.92705e-05
13 *476:D *44:11 0
14 *476:D *72:48 0
15 *476:D *76:20 3.74738e-05
16 *476:D *86:17 0
17 *476:D *91:10 1.41761e-05
18 *476:D *105:19 0
*RES
1 *440:Y *476:D 47.4414 
*END

*D_NET *24 0.00299829
*CONN
*I *477:D I *D sky130_fd_sc_hd__dfxtp_1
*I *443:Y O *D sky130_fd_sc_hd__nor2_1
*CAP
1 *477:D 0
2 *443:Y 0.000620269
3 *24:9 0.000620269
4 *24:9 *383:A 0
5 *24:9 *384:A 0.000655724
6 *24:9 *391:B1 8.82339e-05
7 *24:9 *400:A 0
8 *24:9 *68:14 9.2346e-06
9 *24:9 *85:13 0
10 *24:9 *86:10 0.000990412
11 *461:D *24:9 1.41531e-05
*RES
1 *443:Y *24:9 41.2062 
2 *24:9 *477:D 9.24915 
*END

*D_NET *25 0.00348146
*CONN
*I *478:D I *D sky130_fd_sc_hd__dfxtp_1
*I *445:Y O *D sky130_fd_sc_hd__nor2_1
*CAP
1 *478:D 0
2 *445:Y 0.000820016
3 *25:17 0.000820016
4 *25:17 *383:A 0.000321918
5 *25:17 *384:A 0
6 *25:17 *394:B1 0.000200794
7 *25:17 *400:A 4.77591e-05
8 *25:17 *445:B 0.000198662
9 *25:17 *478:CLK 9.73548e-05
10 *25:17 *56:11 4.00238e-05
11 *25:17 *67:5 6.08467e-05
12 *25:17 *68:14 3.88213e-05
13 *25:17 *70:52 0.000119661
14 *25:17 *71:31 0.000110777
15 *25:17 *80:15 0.000567483
16 *25:17 *118:36 3.73224e-05
*RES
1 *445:Y *25:17 41.7444 
2 *25:17 *478:D 9.24915 
*END

*D_NET *26 0.0029316
*CONN
*I *479:D I *D sky130_fd_sc_hd__dfxtp_1
*I *448:Y O *D sky130_fd_sc_hd__nor2_1
*CAP
1 *479:D 0.000883256
2 *448:Y 0.000883256
3 *479:D *454:B2 0
4 *479:D *455:B1 3.29488e-05
5 *479:D *480:D 0.000320404
6 *479:D *47:24 3.77488e-05
7 *479:D *63:10 1.67438e-05
8 *479:D *71:15 2.08745e-05
9 *479:D *96:92 0.000522263
10 *479:D *96:96 0.000214106
*RES
1 *448:Y *479:D 45.7168 
*END

*D_NET *27 0.00237592
*CONN
*I *480:D I *D sky130_fd_sc_hd__dfxtp_1
*I *452:X O *D sky130_fd_sc_hd__clkbuf_1
*CAP
1 *480:D 0.000482689
2 *452:X 0.000482689
3 *480:D *449:A 0.000116751
4 *480:D *454:A1 0.000172426
5 *480:D *454:A2 0.000364356
6 *480:D *454:B1 0.0002646
7 *480:D *480:CLK 4.66492e-05
8 *480:D *483:CLK 9.17771e-05
9 *480:D *47:24 1.32509e-05
10 *480:D *63:10 2.03271e-05
11 *479:D *480:D 0.000320404
*RES
1 *452:X *480:D 43.3026 
*END

*D_NET *28 0.00394156
*CONN
*I *481:D I *D sky130_fd_sc_hd__dfxtp_1
*I *454:Y O *D sky130_fd_sc_hd__a221oi_1
*CAP
1 *481:D 0
2 *454:Y 0.00101909
3 *28:15 0.00101909
4 *28:15 *385:A1 2.41483e-05
5 *28:15 *385:A2 4.58907e-05
6 *28:15 *385:B1 0.000111722
7 *28:15 *444:A1 0.00037322
8 *28:15 *447:B1 0.000152899
9 *28:15 *448:B 0.000160617
10 *28:15 *453:A 3.32133e-05
11 *28:15 *454:A1 6.50586e-05
12 *28:15 *454:A2 0.000487486
13 *28:15 *454:B1 0.000296097
14 *28:15 *483:D 8.98279e-05
15 *28:15 *49:17 2.25583e-07
16 *28:15 *110:5 1.84293e-05
17 *28:15 *111:8 8.72221e-06
18 *11:15 *28:15 3.58208e-05
*RES
1 *454:Y *28:15 45.4781 
2 *28:15 *481:D 9.24915 
*END

*D_NET *29 0.0051475
*CONN
*I *482:D I *D sky130_fd_sc_hd__dfxtp_1
*I *457:X O *D sky130_fd_sc_hd__clkbuf_1
*CAP
1 *482:D 0.000215949
2 *457:X 0.00108306
3 *29:8 0.001299
4 *482:D *101:8 1.31872e-05
5 *29:8 *378:B 2.71422e-05
6 *29:8 *429:B1 3.60268e-05
7 *29:8 *431:A1 0.000138739
8 *29:8 *433:B1 0.000384876
9 *29:8 *434:A2 0.000549731
10 *29:8 *55:7 6.50586e-05
11 *29:8 *55:8 0
12 *29:8 *60:61 0.000157021
13 *29:8 *63:10 0.000677318
14 *29:8 *89:19 3.14544e-05
15 *29:8 *103:8 1.05982e-05
16 *11:15 *29:8 0.000439211
17 *19:17 *29:8 1.91246e-05
*RES
1 *457:X *29:8 48.0087 
2 *29:8 *482:D 17.8544 
*END

*D_NET *30 0.00185297
*CONN
*I *483:D I *D sky130_fd_sc_hd__dfxtp_1
*I *459:Y O *D sky130_fd_sc_hd__a21oi_1
*CAP
1 *483:D 0.000285356
2 *459:Y 0.000285356
3 *483:D *454:B1 6.71192e-05
4 *483:D *455:A3 1.61631e-05
5 *483:D *459:A2 6.08467e-05
6 *483:D *47:13 0.000118485
7 *483:D *49:17 5.40433e-05
8 *483:D *64:13 0.000436766
9 *483:D *107:32 0.000439012
10 *28:15 *483:D 8.98279e-05
*RES
1 *459:Y *483:D 38.349 
*END

*D_NET *31 0.00443986
*CONN
*I *425:A2 I *D sky130_fd_sc_hd__o21ai_1
*I *423:A_N I *D sky130_fd_sc_hd__and3b_1
*I *421:X O *D sky130_fd_sc_hd__and3_1
*CAP
1 *425:A2 0.000446389
2 *423:A_N 0.000694224
3 *421:X 0
4 *31:4 0.00114061
5 *423:A_N *405:A 0.000140307
6 *423:A_N *420:A1 1.41976e-05
7 *423:A_N *420:A2 1.1718e-05
8 *423:A_N *421:A 3.24818e-05
9 *423:A_N *440:A 0
10 *423:A_N *442:A2 0
11 *423:A_N *42:7 2.16355e-05
12 *423:A_N *86:32 4.42987e-06
13 *423:A_N *88:41 0.000107496
14 *425:A2 *42:7 1.65872e-05
15 *425:A2 *88:41 0.000139947
16 *425:A2 *89:19 9.97706e-05
17 *425:A2 *89:23 0.00106267
18 *468:D *423:A_N 0.000300565
19 *469:D *423:A_N 3.76832e-05
20 *2:14 *423:A_N 0.000129098
21 *13:15 *423:A_N 4.00429e-05
*RES
1 *421:X *31:4 9.24915 
2 *31:4 *423:A_N 34.2754 
3 *31:4 *425:A2 22.7284 
*END

*D_NET *32 0.00114793
*CONN
*I *423:B I *D sky130_fd_sc_hd__and3b_1
*I *422:X O *D sky130_fd_sc_hd__a31o_1
*CAP
1 *423:B 0.000205339
2 *422:X 0.000205339
3 *423:B *405:A 0.000357806
4 *423:B *88:41 2.16355e-05
5 *469:D *423:B 0.000357806
*RES
1 *422:X *423:B 35.0367 
*END

*D_NET *33 0.00429568
*CONN
*I *424:A I *D sky130_fd_sc_hd__clkbuf_1
*I *423:X O *D sky130_fd_sc_hd__and3b_1
*CAP
1 *424:A 0
2 *423:X 0.00125321
3 *33:11 0.00125321
4 *33:11 *379:C 0.000123582
5 *33:11 *432:B1 0.000307037
6 *33:11 *472:CLK 0.000296893
7 *33:11 *41:17 0.000167076
8 *33:11 *86:32 0.000166937
9 *33:11 *99:16 4.36956e-05
10 *33:11 *103:8 2.07365e-05
11 *33:11 *120:5 1.03403e-05
12 *33:11 *120:41 0.000127179
13 *468:D *33:11 2.12616e-05
14 *475:D *33:11 0.000165181
15 *19:17 *33:11 0.000107101
16 *20:10 *33:11 0.000232247
*RES
1 *423:X *33:11 47.455 
2 *33:11 *424:A 9.24915 
*END

*D_NET *34 0.00563432
*CONN
*I *426:B I *D sky130_fd_sc_hd__nor2_1
*I *425:Y O *D sky130_fd_sc_hd__o21ai_1
*CAP
1 *426:B 0
2 *425:Y 0.00160817
3 *34:15 0.00160817
4 *34:15 *431:B1 7.6719e-06
5 *34:15 *442:B1 0.000148088
6 *34:15 *458:A1 0.000232032
7 *471:D *34:15 0
8 *475:D *34:15 7.50872e-05
9 *14:7 *34:15 0.0019551
*RES
1 *425:Y *34:15 49.8581 
2 *34:15 *426:B 9.24915 
*END

*D_NET *35 0.000528608
*CONN
*I *428:A I *D sky130_fd_sc_hd__dlymetal6s2s_1
*I *427:X O *D sky130_fd_sc_hd__and2_1
*CAP
1 *428:A 4.28024e-05
2 *427:X 4.28024e-05
3 *428:A *434:B1 6.10864e-05
4 *428:A *36:12 0.000114584
5 *428:A *100:13 0.000267333
*RES
1 *427:X *428:A 21.4401 
*END

*D_NET *36 0.00504145
*CONN
*I *430:A I *D sky130_fd_sc_hd__nor2_1
*I *432:A2 I *D sky130_fd_sc_hd__a21oi_1
*I *433:A2 I *D sky130_fd_sc_hd__a21oi_1
*I *431:A2 I *D sky130_fd_sc_hd__o21ai_1
*I *434:A1 I *D sky130_fd_sc_hd__a211oi_1
*I *428:X O *D sky130_fd_sc_hd__dlymetal6s2s_1
*CAP
1 *430:A 0
2 *432:A2 0.000293203
3 *433:A2 0
4 *431:A2 0.000245882
5 *434:A1 5.00868e-05
6 *428:X 0.000188678
7 *36:41 0.000407807
8 *36:35 0.000308434
9 *36:21 0.000545291
10 *36:12 0.000344345
11 *431:A2 *413:A 1.87469e-05
12 *431:A2 *429:B1 2.57809e-05
13 *431:A2 *55:8 8.5866e-05
14 *431:A2 *89:19 0.000220837
15 *431:A2 *113:26 3.31733e-05
16 *432:A2 *432:A1 4.0752e-05
17 *432:A2 *432:B1 0.000222229
18 *432:A2 *100:22 0.000305189
19 *432:A2 *100:36 9.89388e-06
20 *434:A1 *382:A1 1.65269e-05
21 *434:A1 *382:A2 7.41614e-05
22 *434:A1 *434:A2 2.99287e-05
23 *36:12 *382:A2 2.75449e-05
24 *36:12 *432:B1 4.90939e-05
25 *36:12 *434:B1 0.000209388
26 *36:12 *437:A 1.79732e-05
27 *36:12 *100:13 9.37131e-05
28 *36:21 *382:A2 0.000160617
29 *36:21 *434:A2 5.6714e-05
30 *36:21 *66:16 6.50586e-05
31 *36:35 *434:A2 8.14875e-05
32 *36:35 *66:16 6.08467e-05
33 *36:41 *430:B 0.000216088
34 *36:41 *431:A1 0.000219701
35 *36:41 *100:22 6.08467e-05
36 *428:A *36:12 0.000114584
37 *19:17 *36:35 4.31539e-05
38 *20:10 *432:A2 9.78277e-05
*RES
1 *428:X *36:12 24.4322 
2 *36:12 *434:A1 11.1059 
3 *36:12 *36:21 3.49641 
4 *36:21 *431:A2 24.9599 
5 *36:21 *36:35 5.18434 
6 *36:35 *36:41 13.6317 
7 *36:41 *433:A2 9.24915 
8 *36:41 *432:A2 27.7651 
9 *36:35 *430:A 9.24915 
*END

*D_NET *37 0.000778716
*CONN
*I *430:B I *D sky130_fd_sc_hd__nor2_1
*I *429:Y O *D sky130_fd_sc_hd__o21ai_1
*CAP
1 *430:B 0.000204464
2 *429:Y 0.000204464
3 *430:B *431:A1 2.01595e-05
4 *430:B *432:A1 9.89388e-06
5 *430:B *100:22 3.08296e-05
6 *430:B *101:12 7.86847e-05
7 *19:17 *430:B 1.41307e-05
8 *36:41 *430:B 0.000216088
*RES
1 *429:Y *430:B 34.2062 
*END

*D_NET *38 0.00332171
*CONN
*I *432:B1 I *D sky130_fd_sc_hd__a21oi_1
*I *431:Y O *D sky130_fd_sc_hd__o21ai_1
*CAP
1 *432:B1 0.000694189
2 *431:Y 0.000694189
3 *432:B1 *382:A2 2.11099e-05
4 *432:B1 *413:A 0.000117376
5 *432:B1 *429:B1 0.000108735
6 *432:B1 *432:A1 0.000366483
7 *432:B1 *55:8 0.000155066
8 *432:B1 *99:16 3.28433e-06
9 *432:B1 *103:8 0.000540283
10 *432:A2 *432:B1 0.000222229
11 *20:10 *432:B1 4.26333e-05
12 *33:11 *432:B1 0.000307037
13 *36:12 *432:B1 4.90939e-05
*RES
1 *431:Y *432:B1 49.0678 
*END

*D_NET *39 0.00179472
*CONN
*I *434:B1 I *D sky130_fd_sc_hd__a211oi_1
*I *433:Y O *D sky130_fd_sc_hd__a21oi_1
*CAP
1 *434:B1 0.000608984
2 *433:Y 0.000608984
3 *434:B1 *437:A 6.85742e-05
4 *434:B1 *99:16 7.21868e-05
5 *434:B1 *100:13 7.00594e-05
6 *434:B1 *100:22 9.54612e-05
7 *428:A *434:B1 6.10864e-05
8 *36:12 *434:B1 0.000209388
*RES
1 *433:Y *434:B1 37.9575 
*END

*D_NET *40 0.00693469
*CONN
*I *436:B I *D sky130_fd_sc_hd__and3b_1
*I *435:X O *D sky130_fd_sc_hd__a31o_1
*CAP
1 *436:B 0.000649936
2 *435:X 0.00162793
3 *40:7 0.00227786
4 *436:B *41:17 4.27148e-05
5 *436:B *72:48 0.000104731
6 *436:B *85:13 0.000319753
7 *436:B *91:8 1.21461e-06
8 *436:B *118:13 0.000340199
9 *436:B *120:22 0.000697399
10 *40:7 *378:C 0.000200794
11 *40:7 *435:A2 0.000200794
12 *40:7 *465:CLK 0.000127795
13 *40:7 *470:CLK 9.73093e-05
14 *40:7 *118:13 3.79253e-05
15 *40:7 *119:18 0.000205151
16 *465:D *40:7 3.18826e-06
*RES
1 *435:X *40:7 34.3992 
2 *40:7 *436:B 37.9972 
*END

*D_NET *41 0.00924813
*CONN
*I *437:A I *D sky130_fd_sc_hd__clkbuf_1
*I *436:X O *D sky130_fd_sc_hd__and3b_1
*CAP
1 *437:A 0.000483376
2 *436:X 0.00201448
3 *41:17 0.00249786
4 *437:A *382:A2 1.9488e-05
5 *437:A *425:A1 0.000199292
6 *437:A *457:A 0.000263713
7 *437:A *458:A1 7.63537e-05
8 *437:A *99:16 8.43569e-05
9 *437:A *112:18 0
10 *41:17 *374:D 0
11 *41:17 *379:B 3.62743e-05
12 *41:17 *407:C 0
13 *41:17 *416:B 2.37478e-05
14 *41:17 *58:15 0.00124762
15 *41:17 *62:10 0.000145192
16 *41:17 *72:48 1.41761e-05
17 *41:17 *99:16 0.000113968
18 *41:17 *112:18 0.00038113
19 *41:17 *116:46 0.00115127
20 *434:B1 *437:A 6.85742e-05
21 *436:B *41:17 4.27148e-05
22 *476:D *41:17 0.000154991
23 *20:10 *41:17 4.45028e-05
24 *33:11 *41:17 0.000167076
25 *36:12 *437:A 1.79732e-05
*RES
1 *436:X *41:17 45.3924 
2 *41:17 *437:A 27.6967 
*END

*D_NET *42 0.00429472
*CONN
*I *440:A I *D sky130_fd_sc_hd__nor2_1
*I *442:A2 I *D sky130_fd_sc_hd__o21ai_1
*I *438:X O *D sky130_fd_sc_hd__and2_1
*CAP
1 *440:A 0.000705266
2 *442:A2 0.000270817
3 *438:X 8.21358e-05
4 *42:7 0.00105822
5 *440:A *375:A 3.04754e-05
6 *440:A *375:B 0.000281573
7 *440:A *376:D 4.66492e-05
8 *440:A *405:A 0.00050853
9 *440:A *421:C 7.14746e-05
10 *440:A *426:A 0.000112159
11 *440:A *43:11 0.00010158
12 *440:A *59:5 6.08467e-05
13 *442:A2 *415:A 3.39118e-05
14 *442:A2 *426:A 0.000397973
15 *442:A2 *442:A1 0
16 *42:7 *421:A 0.000294093
17 *42:7 *89:23 0.000200794
18 *423:A_N *440:A 0
19 *423:A_N *442:A2 0
20 *423:A_N *42:7 2.16355e-05
21 *425:A2 *42:7 1.65872e-05
*RES
1 *438:X *42:7 17.2456 
2 *42:7 *442:A2 19.3535 
3 *42:7 *440:A 32.4657 
*END

*D_NET *43 0.00406926
*CONN
*I *440:B I *D sky130_fd_sc_hd__nor2_1
*I *439:Y O *D sky130_fd_sc_hd__o21ai_1
*CAP
1 *440:B 0
2 *439:Y 0.000636068
3 *43:11 0.000636068
4 *43:11 *375:A 0.000457069
5 *43:11 *375:B 0.000404777