*SPEF "ieee 1481-1999"
*DESIGN "Blink"
*DATE "11:11:11 Fri 11 11, 1111"
*VENDOR "OpenRCX"
*PROGRAM "Parallel Extraction"
*VERSION "1.0"
*DESIGN_FLOW "NAME_SCOPE LOCAL" "PIN_CAP NONE"
*DIVIDER /
*DELIMITER :
*BUS_DELIMITER []
*T_UNIT 1 NS
*C_UNIT 1 PF
*R_UNIT 1 OHM
*L_UNIT 1 HENRY

*NAME_MAP
*1 blink[0]
*2 blink[1]
*3 clk
*4 rst
*7 _000_
*8 _001_
*9 _002_
*10 _003_
*11 _004_
*12 _005_
*13 _006_
*14 _007_
*15 _008_
*16 _009_
*17 _010_
*18 _011_
*19 _012_
*20 _013_
*21 _014_
*22 _015_
*23 _016_
*24 _017_
*25 _018_
*26 _019_
*27 _020_
*28 _021_
*29 _022_
*30 _023_
*31 _024_
*32 _025_
*33 _026_
*34 _027_
*35 _028_
*36 _029_
*37 _030_
*38 _031_
*39 _032_
*40 _033_
*41 _034_
*42 _035_
*43 _036_
*44 _037_
*45 _038_
*46 _039_
*47 _040_
*48 _041_
*49 _042_
*50 _043_
*51 _044_
*52 _045_
*53 _046_
*54 _047_
*55 _048_
*56 _049_
*57 _050_
*58 _051_
*59 _052_
*60 _053_
*61 _054_
*62 _055_
*63 _056_
*64 _057_
*65 _058_
*66 _059_
*67 _060_
*68 _061_
*69 _062_
*70 _063_
*71 _064_
*72 _065_
*73 _066_
*74 _067_
*75 _068_
*76 _069_
*77 _070_
*78 _071_
*79 _072_
*80 _073_
*81 _074_
*82 _075_
*83 _076_
*84 _077_
*85 _078_
*86 _079_
*87 _080_
*88 clknet_0_clk
*89 clknet_1_0_0_clk
*90 clknet_1_1_0_clk
*91 ctr\.counter\[0\]
*92 ctr\.counter\[10\]
*93 ctr\.counter\[11\]
*94 ctr\.counter\[12\]
*95 ctr\.counter\[13\]
*96 ctr\.counter\[14\]
*97 ctr\.counter\[15\]
*98 ctr\.counter\[16\]
*99 ctr\.counter\[17\]
*100 ctr\.counter\[18\]
*101 ctr\.counter\[19\]
*102 ctr\.counter\[1\]
*103 ctr\.counter\[20\]
*104 ctr\.counter\[21\]
*105 ctr\.counter\[22\]
*106 ctr\.counter\[23\]
*107 ctr\.counter\[24\]
*108 ctr\.counter\[2\]
*109 ctr\.counter\[3\]
*110 ctr\.counter\[4\]
*111 ctr\.counter\[5\]
*112 ctr\.counter\[6\]
*113 ctr\.counter\[7\]
*114 ctr\.counter\[8\]
*115 ctr\.counter\[9\]
*116 net1
*117 net2
*118 net3
*119 ANTENNA__093__A
*120 ANTENNA__097__A
*121 ANTENNA__098__B1
*122 ANTENNA__100__A
*123 ANTENNA__102__B
*124 ANTENNA__103__A2
*125 ANTENNA__104__A2
*126 ANTENNA__105__C
*127 ANTENNA__106__A2
*128 ANTENNA__108__A
*129 ANTENNA__117__A
*130 ANTENNA__119__A
*131 ANTENNA__122__A
*132 ANTENNA__125__A
*133 ANTENNA__133__A
*134 ANTENNA__136__A
*135 ANTENNA__139__A
*136 ANTENNA__142__A
*137 ANTENNA__145__A
*138 ANTENNA__152__A
*139 ANTENNA_clkbuf_0_clk_A
*140 ANTENNA_input1_A
*141 FILLER_0_109
*142 FILLER_0_113
*143 FILLER_0_125
*144 FILLER_0_137
*145 FILLER_0_141
*146 FILLER_0_15
*147 FILLER_0_153
*148 FILLER_0_165
*149 FILLER_0_169
*150 FILLER_0_181
*151 FILLER_0_193
*152 FILLER_0_197
*153 FILLER_0_209
*154 FILLER_0_221
*155 FILLER_0_225
*156 FILLER_0_237
*157 FILLER_0_249
*158 FILLER_0_253
*159 FILLER_0_265
*160 FILLER_0_27
*161 FILLER_0_277
*162 FILLER_0_281
*163 FILLER_0_29
*164 FILLER_0_293
*165 FILLER_0_3
*166 FILLER_0_305
*167 FILLER_0_309
*168 FILLER_0_321
*169 FILLER_0_333
*170 FILLER_0_337
*171 FILLER_0_349
*172 FILLER_0_361
*173 FILLER_0_365
*174 FILLER_0_377
*175 FILLER_0_389
*176 FILLER_0_393
*177 FILLER_0_405
*178 FILLER_0_41
*179 FILLER_0_53
*180 FILLER_0_57
*181 FILLER_0_69
*182 FILLER_0_81
*183 FILLER_0_85
*184 FILLER_0_97
*185 FILLER_10_109
*186 FILLER_10_121
*187 FILLER_10_133
*188 FILLER_10_139
*189 FILLER_10_141
*190 FILLER_10_15
*191 FILLER_10_153
*192 FILLER_10_165
*193 FILLER_10_177
*194 FILLER_10_189
*195 FILLER_10_195
*196 FILLER_10_197
*197 FILLER_10_209
*198 FILLER_10_221
*199 FILLER_10_233
*200 FILLER_10_245
*201 FILLER_10_251
*202 FILLER_10_253
*203 FILLER_10_265
*204 FILLER_10_27
*205 FILLER_10_277
*206 FILLER_10_289
*207 FILLER_10_29
*208 FILLER_10_3
*209 FILLER_10_301
*210 FILLER_10_307
*211 FILLER_10_309
*212 FILLER_10_321
*213 FILLER_10_333
*214 FILLER_10_345
*215 FILLER_10_357
*216 FILLER_10_363
*217 FILLER_10_365
*218 FILLER_10_377
*219 FILLER_10_389
*220 FILLER_10_401
*221 FILLER_10_41
*222 FILLER_10_53
*223 FILLER_10_65
*224 FILLER_10_77
*225 FILLER_10_83
*226 FILLER_10_85
*227 FILLER_10_97
*228 FILLER_11_105
*229 FILLER_11_111
*230 FILLER_11_113
*231 FILLER_11_125
*232 FILLER_11_137
*233 FILLER_11_149
*234 FILLER_11_15
*235 FILLER_11_161
*236 FILLER_11_167
*237 FILLER_11_169
*238 FILLER_11_181
*239 FILLER_11_193
*240 FILLER_11_205
*241 FILLER_11_217
*242 FILLER_11_223
*243 FILLER_11_225
*244 FILLER_11_237
*245 FILLER_11_249
*246 FILLER_11_261
*247 FILLER_11_27
*248 FILLER_11_273
*249 FILLER_11_279
*250 FILLER_11_281
*251 FILLER_11_293
*252 FILLER_11_3
*253 FILLER_11_305
*254 FILLER_11_317
*255 FILLER_11_329
*256 FILLER_11_335
*257 FILLER_11_337
*258 FILLER_11_349
*259 FILLER_11_361
*260 FILLER_11_373
*261 FILLER_11_385
*262 FILLER_11_39
*263 FILLER_11_391
*264 FILLER_11_393
*265 FILLER_11_405
*266 FILLER_11_51
*267 FILLER_11_55
*268 FILLER_11_57
*269 FILLER_11_69
*270 FILLER_11_81
*271 FILLER_11_93
*272 FILLER_12_109
*273 FILLER_12_121
*274 FILLER_12_133
*275 FILLER_12_139
*276 FILLER_12_141
*277 FILLER_12_15
*278 FILLER_12_153
*279 FILLER_12_165
*280 FILLER_12_177
*281 FILLER_12_189
*282 FILLER_12_195
*283 FILLER_12_197
*284 FILLER_12_209
*285 FILLER_12_221
*286 FILLER_12_233
*287 FILLER_12_245
*288 FILLER_12_251
*289 FILLER_12_253
*290 FILLER_12_265
*291 FILLER_12_27
*292 FILLER_12_277
*293 FILLER_12_289
*294 FILLER_12_29
*295 FILLER_12_3
*296 FILLER_12_301
*297 FILLER_12_307
*298 FILLER_12_309
*299 FILLER_12_321
*300 FILLER_12_333
*301 FILLER_12_345
*302 FILLER_12_357
*303 FILLER_12_363
*304 FILLER_12_365
*305 FILLER_12_377
*306 FILLER_12_389
*307 FILLER_12_401
*308 FILLER_12_41
*309 FILLER_12_53
*310 FILLER_12_65
*311 FILLER_12_77
*312 FILLER_12_83
*313 FILLER_12_85
*314 FILLER_12_97
*315 FILLER_13_105
*316 FILLER_13_111
*317 FILLER_13_113
*318 FILLER_13_125
*319 FILLER_13_137
*320 FILLER_13_149
*321 FILLER_13_15
*322 FILLER_13_161
*323 FILLER_13_167
*324 FILLER_13_169
*325 FILLER_13_181
*326 FILLER_13_193
*327 FILLER_13_205
*328 FILLER_13_217
*329 FILLER_13_223
*330 FILLER_13_225
*331 FILLER_13_237
*332 FILLER_13_249
*333 FILLER_13_261
*334 FILLER_13_27
*335 FILLER_13_273
*336 FILLER_13_279
*337 FILLER_13_281
*338 FILLER_13_293
*339 FILLER_13_3
*340 FILLER_13_305
*341 FILLER_13_317
*342 FILLER_13_329
*343 FILLER_13_335
*344 FILLER_13_337
*345 FILLER_13_349
*346 FILLER_13_361
*347 FILLER_13_373
*348 FILLER_13_385
*349 FILLER_13_39
*350 FILLER_13_391
*351 FILLER_13_393
*352 FILLER_13_405
*353 FILLER_13_51
*354 FILLER_13_55
*355 FILLER_13_57
*356 FILLER_13_69
*357 FILLER_13_81
*358 FILLER_13_93
*359 FILLER_14_109
*360 FILLER_14_121
*361 FILLER_14_133
*362 FILLER_14_139
*363 FILLER_14_141
*364 FILLER_14_15
*365 FILLER_14_153
*366 FILLER_14_165
*367 FILLER_14_177
*368 FILLER_14_189
*369 FILLER_14_195
*370 FILLER_14_197
*371 FILLER_14_209
*372 FILLER_14_221
*373 FILLER_14_233
*374 FILLER_14_245
*375 FILLER_14_251
*376 FILLER_14_253
*377 FILLER_14_265
*378 FILLER_14_27
*379 FILLER_14_277
*380 FILLER_14_289
*381 FILLER_14_29
*382 FILLER_14_3
*383 FILLER_14_301
*384 FILLER_14_307
*385 FILLER_14_309
*386 FILLER_14_321
*387 FILLER_14_333
*388 FILLER_14_345
*389 FILLER_14_357
*390 FILLER_14_363
*391 FILLER_14_365
*392 FILLER_14_377
*393 FILLER_14_389
*394 FILLER_14_397
*395 FILLER_14_403
*396 FILLER_14_41
*397 FILLER_14_53
*398 FILLER_14_65
*399 FILLER_14_77
*400 FILLER_14_83
*401 FILLER_14_85
*402 FILLER_14_97
*403 FILLER_15_105
*404 FILLER_15_111
*405 FILLER_15_113
*406 FILLER_15_125
*407 FILLER_15_137
*408 FILLER_15_149
*409 FILLER_15_15
*410 FILLER_15_161
*411 FILLER_15_167
*412 FILLER_15_169
*413 FILLER_15_181
*414 FILLER_15_193
*415 FILLER_15_205
*416 FILLER_15_217
*417 FILLER_15_223
*418 FILLER_15_225
*419 FILLER_15_237
*420 FILLER_15_249
*421 FILLER_15_261
*422 FILLER_15_27
*423 FILLER_15_273
*424 FILLER_15_279
*425 FILLER_15_281
*426 FILLER_15_293
*427 FILLER_15_3
*428 FILLER_15_305
*429 FILLER_15_317
*430 FILLER_15_329
*431 FILLER_15_335
*432 FILLER_15_337
*433 FILLER_15_349
*434 FILLER_15_361
*435 FILLER_15_373
*436 FILLER_15_385
*437 FILLER_15_39
*438 FILLER_15_391
*439 FILLER_15_393
*440 FILLER_15_405
*441 FILLER_15_51
*442 FILLER_15_55
*443 FILLER_15_57
*444 FILLER_15_69
*445 FILLER_15_81
*446 FILLER_15_93
*447 FILLER_16_109
*448 FILLER_16_121
*449 FILLER_16_133
*450 FILLER_16_139
*451 FILLER_16_141
*452 FILLER_16_15
*453 FILLER_16_153
*454 FILLER_16_165
*455 FILLER_16_177
*456 FILLER_16_189
*457 FILLER_16_195
*458 FILLER_16_197
*459 FILLER_16_209
*460 FILLER_16_221
*461 FILLER_16_233
*462 FILLER_16_245
*463 FILLER_16_251
*464 FILLER_16_253
*465 FILLER_16_265
*466 FILLER_16_27
*467 FILLER_16_277
*468 FILLER_16_289
*469 FILLER_16_29
*470 FILLER_16_3
*471 FILLER_16_301
*472 FILLER_16_307
*473 FILLER_16_309
*474 FILLER_16_321
*475 FILLER_16_333
*476 FILLER_16_345
*477 FILLER_16_357
*478 FILLER_16_363
*479 FILLER_16_365
*480 FILLER_16_377
*481 FILLER_16_389
*482 FILLER_16_401
*483 FILLER_16_41
*484 FILLER_16_53
*485 FILLER_16_65
*486 FILLER_16_77
*487 FILLER_16_83
*488 FILLER_16_85
*489 FILLER_16_97
*490 FILLER_17_105
*491 FILLER_17_111
*492 FILLER_17_113
*493 FILLER_17_125
*494 FILLER_17_137
*495 FILLER_17_149
*496 FILLER_17_15
*497 FILLER_17_161
*498 FILLER_17_167
*499 FILLER_17_169
*500 FILLER_17_181
*501 FILLER_17_193
*502 FILLER_17_205
*503 FILLER_17_217
*504 FILLER_17_223
*505 FILLER_17_225
*506 FILLER_17_237
*507 FILLER_17_249
*508 FILLER_17_261
*509 FILLER_17_27
*510 FILLER_17_273
*511 FILLER_17_279
*512 FILLER_17_281
*513 FILLER_17_293
*514 FILLER_17_3
*515 FILLER_17_305
*516 FILLER_17_317
*517 FILLER_17_329
*518 FILLER_17_335
*519 FILLER_17_337
*520 FILLER_17_349
*521 FILLER_17_361
*522 FILLER_17_373
*523 FILLER_17_385
*524 FILLER_17_39
*525 FILLER_17_391
*526 FILLER_17_393
*527 FILLER_17_405
*528 FILLER_17_51
*529 FILLER_17_55
*530 FILLER_17_57
*531 FILLER_17_69
*532 FILLER_17_81
*533 FILLER_17_93
*534 FILLER_18_109
*535 FILLER_18_121
*536 FILLER_18_133
*537 FILLER_18_139
*538 FILLER_18_141
*539 FILLER_18_15
*540 FILLER_18_153
*541 FILLER_18_165
*542 FILLER_18_177
*543 FILLER_18_189
*544 FILLER_18_195
*545 FILLER_18_197
*546 FILLER_18_209
*547 FILLER_18_221
*548 FILLER_18_233
*549 FILLER_18_245
*550 FILLER_18_251
*551 FILLER_18_253
*552 FILLER_18_265
*553 FILLER_18_27
*554 FILLER_18_277
*555 FILLER_18_289
*556 FILLER_18_29
*557 FILLER_18_3
*558 FILLER_18_301
*559 FILLER_18_307
*560 FILLER_18_309
*561 FILLER_18_321
*562 FILLER_18_333
*563 FILLER_18_345
*564 FILLER_18_357
*565 FILLER_18_363
*566 FILLER_18_365
*567 FILLER_18_377
*568 FILLER_18_389
*569 FILLER_18_401
*570 FILLER_18_41
*571 FILLER_18_53
*572 FILLER_18_65
*573 FILLER_18_77
*574 FILLER_18_83
*575 FILLER_18_85
*576 FILLER_18_97
*577 FILLER_19_105
*578 FILLER_19_111
*579 FILLER_19_113
*580 FILLER_19_125
*581 FILLER_19_137
*582 FILLER_19_149
*583 FILLER_19_15
*584 FILLER_19_161
*585 FILLER_19_167
*586 FILLER_19_169
*587 FILLER_19_181
*588 FILLER_19_193
*589 FILLER_19_205
*590 FILLER_19_217
*591 FILLER_19_223
*592 FILLER_19_225
*593 FILLER_19_237
*594 FILLER_19_249
*595 FILLER_19_261
*596 FILLER_19_27
*597 FILLER_19_273
*598 FILLER_19_279
*599 FILLER_19_281
*600 FILLER_19_293
*601 FILLER_19_3
*602 FILLER_19_305
*603 FILLER_19_317
*604 FILLER_19_329
*605 FILLER_19_335
*606 FILLER_19_337
*607 FILLER_19_349
*608 FILLER_19_361
*609 FILLER_19_373
*610 FILLER_19_385
*611 FILLER_19_39
*612 FILLER_19_391
*613 FILLER_19_393
*614 FILLER_19_405
*615 FILLER_19_51
*616 FILLER_19_55
*617 FILLER_19_57
*618 FILLER_19_69
*619 FILLER_19_81
*620 FILLER_19_93
*621 FILLER_1_105
*622 FILLER_1_111
*623 FILLER_1_113
*624 FILLER_1_125
*625 FILLER_1_137
*626 FILLER_1_149
*627 FILLER_1_15
*628 FILLER_1_161
*629 FILLER_1_167
*630 FILLER_1_169
*631 FILLER_1_181
*632 FILLER_1_193
*633 FILLER_1_205
*634 FILLER_1_217
*635 FILLER_1_223
*636 FILLER_1_225
*637 FILLER_1_237
*638 FILLER_1_249
*639 FILLER_1_261
*640 FILLER_1_27
*641 FILLER_1_273
*642 FILLER_1_279
*643 FILLER_1_281
*644 FILLER_1_293
*645 FILLER_1_3
*646 FILLER_1_305
*647 FILLER_1_317
*648 FILLER_1_329
*649 FILLER_1_335
*650 FILLER_1_337
*651 FILLER_1_349
*652 FILLER_1_361
*653 FILLER_1_373
*654 FILLER_1_385
*655 FILLER_1_39
*656 FILLER_1_391
*657 FILLER_1_393
*658 FILLER_1_405
*659 FILLER_1_51
*660 FILLER_1_55
*661 FILLER_1_57
*662 FILLER_1_69
*663 FILLER_1_81
*664 FILLER_1_93
*665 FILLER_20_109
*666 FILLER_20_121
*667 FILLER_20_133
*668 FILLER_20_139
*669 FILLER_20_141
*670 FILLER_20_15
*671 FILLER_20_153
*672 FILLER_20_165
*673 FILLER_20_177
*674 FILLER_20_189
*675 FILLER_20_195
*676 FILLER_20_197
*677 FILLER_20_209
*678 FILLER_20_221
*679 FILLER_20_233
*680 FILLER_20_245
*681 FILLER_20_251
*682 FILLER_20_253
*683 FILLER_20_265
*684 FILLER_20_27
*685 FILLER_20_277
*686 FILLER_20_289
*687 FILLER_20_29
*688 FILLER_20_3
*689 FILLER_20_301
*690 FILLER_20_307
*691 FILLER_20_309
*692 FILLER_20_321
*693 FILLER_20_333
*694 FILLER_20_345
*695 FILLER_20_357
*696 FILLER_20_363
*697 FILLER_20_365
*698 FILLER_20_377
*699 FILLER_20_389
*700 FILLER_20_401
*701 FILLER_20_41
*702 FILLER_20_53
*703 FILLER_20_65
*704 FILLER_20_77
*705 FILLER_20_83
*706 FILLER_20_85
*707 FILLER_20_97
*708 FILLER_21_105
*709 FILLER_21_111
*710 FILLER_21_113
*711 FILLER_21_125
*712 FILLER_21_137
*713 FILLER_21_149
*714 FILLER_21_15
*715 FILLER_21_161
*716 FILLER_21_167
*717 FILLER_21_169
*718 FILLER_21_181
*719 FILLER_21_193
*720 FILLER_21_205
*721 FILLER_21_217
*722 FILLER_21_223
*723 FILLER_21_225
*724 FILLER_21_237
*725 FILLER_21_249
*726 FILLER_21_261
*727 FILLER_21_27
*728 FILLER_21_273
*729 FILLER_21_279
*730 FILLER_21_281
*731 FILLER_21_293
*732 FILLER_21_3
*733 FILLER_21_305
*734 FILLER_21_317
*735 FILLER_21_329
*736 FILLER_21_335
*737 FILLER_21_337
*738 FILLER_21_349
*739 FILLER_21_361
*740 FILLER_21_373
*741 FILLER_21_385
*742 FILLER_21_39
*743 FILLER_21_391
*744 FILLER_21_393
*745 FILLER_21_405
*746 FILLER_21_51
*747 FILLER_21_55
*748 FILLER_21_57
*749 FILLER_21_69
*750 FILLER_21_81
*751 FILLER_21_93
*752 FILLER_22_109
*753 FILLER_22_121
*754 FILLER_22_133
*755 FILLER_22_139
*756 FILLER_22_141
*757 FILLER_22_15
*758 FILLER_22_153
*759 FILLER_22_165
*760 FILLER_22_177
*761 FILLER_22_189
*762 FILLER_22_195
*763 FILLER_22_197
*764 FILLER_22_209
*765 FILLER_22_221
*766 FILLER_22_233
*767 FILLER_22_245
*768 FILLER_22_251
*769 FILLER_22_253
*770 FILLER_22_265
*771 FILLER_22_27
*772 FILLER_22_277
*773 FILLER_22_289
*774 FILLER_22_29
*775 FILLER_22_3
*776 FILLER_22_301
*777 FILLER_22_307
*778 FILLER_22_309
*779 FILLER_22_321
*780 FILLER_22_333
*781 FILLER_22_345
*782 FILLER_22_357
*783 FILLER_22_363
*784 FILLER_22_365
*785 FILLER_22_377
*786 FILLER_22_389
*787 FILLER_22_401
*788 FILLER_22_41
*789 FILLER_22_53
*790 FILLER_22_65
*791 FILLER_22_77
*792 FILLER_22_83
*793 FILLER_22_85
*794 FILLER_22_97
*795 FILLER_23_105
*796 FILLER_23_111
*797 FILLER_23_113
*798 FILLER_23_125
*799 FILLER_23_137
*800 FILLER_23_149
*801 FILLER_23_15
*802 FILLER_23_161
*803 FILLER_23_167
*804 FILLER_23_169
*805 FILLER_23_181
*806 FILLER_23_193
*807 FILLER_23_198
*808 FILLER_23_210
*809 FILLER_23_222
*810 FILLER_23_225
*811 FILLER_23_237
*812 FILLER_23_249
*813 FILLER_23_261
*814 FILLER_23_27
*815 FILLER_23_273
*816 FILLER_23_279
*817 FILLER_23_281
*818 FILLER_23_293
*819 FILLER_23_3
*820 FILLER_23_313
*821 FILLER_23_325
*822 FILLER_23_333
*823 FILLER_23_337
*824 FILLER_23_349
*825 FILLER_23_361
*826 FILLER_23_373
*827 FILLER_23_385
*828 FILLER_23_39
*829 FILLER_23_391
*830 FILLER_23_393
*831 FILLER_23_405
*832 FILLER_23_51
*833 FILLER_23_55
*834 FILLER_23_57
*835 FILLER_23_69
*836 FILLER_23_81
*837 FILLER_23_93
*838 FILLER_24_109
*839 FILLER_24_121
*840 FILLER_24_133
*841 FILLER_24_139
*842 FILLER_24_141
*843 FILLER_24_15
*844 FILLER_24_153
*845 FILLER_24_165
*846 FILLER_24_177
*847 FILLER_24_189
*848 FILLER_24_192
*849 FILLER_24_197
*850 FILLER_24_201
*851 FILLER_24_208
*852 FILLER_24_214
*853 FILLER_24_226
*854 FILLER_24_238
*855 FILLER_24_250
*856 FILLER_24_253
*857 FILLER_24_265
*858 FILLER_24_27
*859 FILLER_24_277
*860 FILLER_24_289
*861 FILLER_24_29
*862 FILLER_24_3
*863 FILLER_24_301
*864 FILLER_24_307
*865 FILLER_24_309
*866 FILLER_24_321
*867 FILLER_24_333
*868 FILLER_24_345
*869 FILLER_24_357
*870 FILLER_24_363
*871 FILLER_24_365
*872 FILLER_24_377
*873 FILLER_24_389
*874 FILLER_24_401
*875 FILLER_24_41
*876 FILLER_24_53
*877 FILLER_24_65
*878 FILLER_24_77
*879 FILLER_24_83
*880 FILLER_24_85
*881 FILLER_24_97
*882 FILLER_25_105
*883 FILLER_25_111
*884 FILLER_25_113
*885 FILLER_25_125
*886 FILLER_25_137
*887 FILLER_25_149
*888 FILLER_25_15
*889 FILLER_25_161
*890 FILLER_25_167
*891 FILLER_25_169
*892 FILLER_25_175
*893 FILLER_25_178
*894 FILLER_25_184
*895 FILLER_25_191
*896 FILLER_25_198
*897 FILLER_25_207
*898 FILLER_25_216
*899 FILLER_25_225
*900 FILLER_25_237
*901 FILLER_25_249
*902 FILLER_25_261
*903 FILLER_25_27
*904 FILLER_25_273
*905 FILLER_25_279
*906 FILLER_25_281
*907 FILLER_25_293
*908 FILLER_25_3
*909 FILLER_25_305
*910 FILLER_25_317
*911 FILLER_25_329
*912 FILLER_25_335
*913 FILLER_25_337
*914 FILLER_25_349
*915 FILLER_25_361
*916 FILLER_25_373
*917 FILLER_25_385
*918 FILLER_25_39
*919 FILLER_25_391
*920 FILLER_25_393
*921 FILLER_25_405
*922 FILLER_25_51
*923 FILLER_25_55
*924 FILLER_25_57
*925 FILLER_25_69
*926 FILLER_25_81
*927 FILLER_25_93
*928 FILLER_26_109
*929 FILLER_26_121
*930 FILLER_26_133
*931 FILLER_26_139
*932 FILLER_26_141
*933 FILLER_26_15
*934 FILLER_26_153
*935 FILLER_26_165
*936 FILLER_26_171
*937 FILLER_26_177
*938 FILLER_26_184
*939 FILLER_26_192
*940 FILLER_26_197
*941 FILLER_26_204
*942 FILLER_26_214
*943 FILLER_26_223
*944 FILLER_26_235
*945 FILLER_26_247
*946 FILLER_26_251
*947 FILLER_26_253
*948 FILLER_26_265
*949 FILLER_26_27
*950 FILLER_26_277
*951 FILLER_26_289
*952 FILLER_26_29
*953 FILLER_26_3
*954 FILLER_26_301
*955 FILLER_26_307
*956 FILLER_26_309
*957 FILLER_26_321
*958 FILLER_26_333
*959 FILLER_26_345
*960 FILLER_26_357
*961 FILLER_26_363
*962 FILLER_26_365
*963 FILLER_26_377
*964 FILLER_26_389
*965 FILLER_26_401
*966 FILLER_26_41
*967 FILLER_26_53
*968 FILLER_26_65
*969 FILLER_26_77
*970 FILLER_26_83
*971 FILLER_26_85
*972 FILLER_26_97
*973 FILLER_27_105
*974 FILLER_27_111
*975 FILLER_27_113
*976 FILLER_27_125
*977 FILLER_27_137
*978 FILLER_27_149
*979 FILLER_27_15
*980 FILLER_27_161
*981 FILLER_27_167
*982 FILLER_27_169
*983 FILLER_27_175
*984 FILLER_27_183
*985 FILLER_27_192
*986 FILLER_27_212
*987 FILLER_27_220
*988 FILLER_27_230
*989 FILLER_27_237
*990 FILLER_27_249
*991 FILLER_27_261
*992 FILLER_27_27
*993 FILLER_27_273
*994 FILLER_27_279
*995 FILLER_27_281
*996 FILLER_27_293
*997 FILLER_27_3
*998 FILLER_27_305
*999 FILLER_27_317
*1000 FILLER_27_329
*1001 FILLER_27_335
*1002 FILLER_27_337
*1003 FILLER_27_349
*1004 FILLER_27_361
*1005 FILLER_27_373
*1006 FILLER_27_385
*1007 FILLER_27_39
*1008 FILLER_27_391
*1009 FILLER_27_393
*1010 FILLER_27_405
*1011 FILLER_27_51
*1012 FILLER_27_55
*1013 FILLER_27_57
*1014 FILLER_27_69
*1015 FILLER_27_81
*1016 FILLER_27_93
*1017 FILLER_28_109
*1018 FILLER_28_121
*1019 FILLER_28_133
*1020 FILLER_28_139
*1021 FILLER_28_141
*1022 FILLER_28_15
*1023 FILLER_28_153
*1024 FILLER_28_165
*1025 FILLER_28_173
*1026 FILLER_28_182
*1027 FILLER_28_192
*1028 FILLER_28_213
*1029 FILLER_28_224
*1030 FILLER_28_234
*1031 FILLER_28_242
*1032 FILLER_28_250
*1033 FILLER_28_257
*1034 FILLER_28_269
*1035 FILLER_28_27
*1036 FILLER_28_281
*1037 FILLER_28_29
*1038 FILLER_28_293
*1039 FILLER_28_3
*1040 FILLER_28_305
*1041 FILLER_28_309
*1042 FILLER_28_321
*1043 FILLER_28_333
*1044 FILLER_28_345
*1045 FILLER_28_357
*1046 FILLER_28_363
*1047 FILLER_28_365
*1048 FILLER_28_377
*1049 FILLER_28_389
*1050 FILLER_28_401
*1051 FILLER_28_41
*1052 FILLER_28_53
*1053 FILLER_28_65
*1054 FILLER_28_77
*1055 FILLER_28_83
*1056 FILLER_28_85
*1057 FILLER_28_97
*1058 FILLER_29_105
*1059 FILLER_29_111
*1060 FILLER_29_113
*1061 FILLER_29_125
*1062 FILLER_29_137
*1063 FILLER_29_149
*1064 FILLER_29_15
*1065 FILLER_29_157
*1066 FILLER_29_164
*1067 FILLER_29_169
*1068 FILLER_29_178
*1069 FILLER_29_188
*1070 FILLER_29_208
*1071 FILLER_29_219
*1072 FILLER_29_223
*1073 FILLER_29_241
*1074 FILLER_29_252
*1075 FILLER_29_261
*1076 FILLER_29_268
*1077 FILLER_29_27
*1078 FILLER_29_281
*1079 FILLER_29_293
*1080 FILLER_29_3
*1081 FILLER_29_305
*1082 FILLER_29_317
*1083 FILLER_29_329
*1084 FILLER_29_335
*1085 FILLER_29_337
*1086 FILLER_29_349
*1087 FILLER_29_361
*1088 FILLER_29_373
*1089 FILLER_29_385
*1090 FILLER_29_39
*1091 FILLER_29_391
*1092 FILLER_29_393
*1093 FILLER_29_405
*1094 FILLER_29_51
*1095 FILLER_29_55
*1096 FILLER_29_57
*1097 FILLER_29_69
*1098 FILLER_29_81
*1099 FILLER_29_93
*1100 FILLER_2_109
*1101 FILLER_2_121
*1102 FILLER_2_133
*1103 FILLER_2_139
*1104 FILLER_2_141
*1105 FILLER_2_15
*1106 FILLER_2_153
*1107 FILLER_2_165
*1108 FILLER_2_177
*1109 FILLER_2_189
*1110 FILLER_2_195
*1111 FILLER_2_197
*1112 FILLER_2_209
*1113 FILLER_2_221
*1114 FILLER_2_233
*1115 FILLER_2_245
*1116 FILLER_2_251
*1117 FILLER_2_253
*1118 FILLER_2_265
*1119 FILLER_2_27
*1120 FILLER_2_277
*1121 FILLER_2_289
*1122 FILLER_2_29
*1123 FILLER_2_3
*1124 FILLER_2_301
*1125 FILLER_2_307
*1126 FILLER_2_309
*1127 FILLER_2_321
*1128 FILLER_2_333
*1129 FILLER_2_345
*1130 FILLER_2_357
*1131 FILLER_2_363
*1132 FILLER_2_365
*1133 FILLER_2_377
*1134 FILLER_2_389
*1135 FILLER_2_401
*1136 FILLER_2_41
*1137 FILLER_2_53
*1138 FILLER_2_65
*1139 FILLER_2_77
*1140 FILLER_2_83
*1141 FILLER_2_85
*1142 FILLER_2_97
*1143 FILLER_30_109
*1144 FILLER_30_121
*1145 FILLER_30_133
*1146 FILLER_30_139
*1147 FILLER_30_141
*1148 FILLER_30_149
*1149 FILLER_30_15
*1150 FILLER_30_154
*1151 FILLER_30_162
*1152 FILLER_30_172
*1153 FILLER_30_192
*1154 FILLER_30_213
*1155 FILLER_30_233
*1156 FILLER_30_237
*1157 FILLER_30_248
*1158 FILLER_30_259
*1159 FILLER_30_263
*1160 FILLER_30_267
*1161 FILLER_30_27
*1162 FILLER_30_279
*1163 FILLER_30_29
*1164 FILLER_30_291
*1165 FILLER_30_3
*1166 FILLER_30_303
*1167 FILLER_30_307
*1168 FILLER_30_309
*1169 FILLER_30_321
*1170 FILLER_30_333
*1171 FILLER_30_345
*1172 FILLER_30_357
*1173 FILLER_30_363
*1174 FILLER_30_365
*1175 FILLER_30_377
*1176 FILLER_30_389
*1177 FILLER_30_401
*1178 FILLER_30_41
*1179 FILLER_30_53
*1180 FILLER_30_65
*1181 FILLER_30_77
*1182 FILLER_30_83
*1183 FILLER_30_85
*1184 FILLER_30_97
*1185 FILLER_31_105
*1186 FILLER_31_111
*1187 FILLER_31_113
*1188 FILLER_31_125
*1189 FILLER_31_137
*1190 FILLER_31_144
*1191 FILLER_31_15
*1192 FILLER_31_154
*1193 FILLER_31_164
*1194 FILLER_31_169
*1195 FILLER_31_187
*1196 FILLER_31_207
*1197 FILLER_31_218
*1198 FILLER_31_241
*1199 FILLER_31_261
*1200 FILLER_31_27
*1201 FILLER_31_270
*1202 FILLER_31_276
*1203 FILLER_31_281
*1204 FILLER_31_293
*1205 FILLER_31_3
*1206 FILLER_31_305
*1207 FILLER_31_317
*1208 FILLER_31_329
*1209 FILLER_31_335
*1210 FILLER_31_337
*1211 FILLER_31_349
*1212 FILLER_31_361
*1213 FILLER_31_373
*1214 FILLER_31_385
*1215 FILLER_31_39
*1216 FILLER_31_391
*1217 FILLER_31_393
*1218 FILLER_31_405
*1219 FILLER_31_51
*1220 FILLER_31_55
*1221 FILLER_31_57
*1222 FILLER_31_69
*1223 FILLER_31_81
*1224 FILLER_31_93
*1225 FILLER_32_109
*1226 FILLER_32_121
*1227 FILLER_32_129
*1228 FILLER_32_136
*1229 FILLER_32_141
*1230 FILLER_32_145
*1231 FILLER_32_15
*1232 FILLER_32_152
*1233 FILLER_32_172
*1234 FILLER_32_192
*1235 FILLER_32_213
*1236 FILLER_32_233
*1237 FILLER_32_239
*1238 FILLER_32_251
*1239 FILLER_32_269
*1240 FILLER_32_27
*1241 FILLER_32_276
*1242 FILLER_32_283
*1243 FILLER_32_289
*1244 FILLER_32_29
*1245 FILLER_32_3
*1246 FILLER_32_301
*1247 FILLER_32_307
*1248 FILLER_32_309
*1249 FILLER_32_321
*1250 FILLER_32_333
*1251 FILLER_32_345
*1252 FILLER_32_357
*1253 FILLER_32_363
*1254 FILLER_32_365
*1255 FILLER_32_377
*1256 FILLER_32_389
*1257 FILLER_32_401
*1258 FILLER_32_41
*1259 FILLER_32_53
*1260 FILLER_32_65
*1261 FILLER_32_77
*1262 FILLER_32_83
*1263 FILLER_32_85
*1264 FILLER_32_97
*1265 FILLER_33_105
*1266 FILLER_33_111
*1267 FILLER_33_113
*1268 FILLER_33_125
*1269 FILLER_33_137
*1270 FILLER_33_144
*1271 FILLER_33_15
*1272 FILLER_33_154
*1273 FILLER_33_164
*1274 FILLER_33_169
*1275 FILLER_33_188
*1276 FILLER_33_208
*1277 FILLER_33_219
*1278 FILLER_33_223
*1279 FILLER_33_225
*1280 FILLER_33_249
*1281 FILLER_33_259
*1282 FILLER_33_268
*1283 FILLER_33_27
*1284 FILLER_33_276
*1285 FILLER_33_281
*1286 FILLER_33_293
*1287 FILLER_33_3
*1288 FILLER_33_305
*1289 FILLER_33_317
*1290 FILLER_33_329
*1291 FILLER_33_335
*1292 FILLER_33_337
*1293 FILLER_33_349
*1294 FILLER_33_361
*1295 FILLER_33_373
*1296 FILLER_33_385
*1297 FILLER_33_39
*1298 FILLER_33_391
*1299 FILLER_33_393
*1300 FILLER_33_405
*1301 FILLER_33_51
*1302 FILLER_33_55
*1303 FILLER_33_57
*1304 FILLER_33_69
*1305 FILLER_33_81
*1306 FILLER_33_93
*1307 FILLER_34_109
*1308 FILLER_34_121
*1309 FILLER_34_133
*1310 FILLER_34_139
*1311 FILLER_34_141
*1312 FILLER_34_147
*1313 FILLER_34_15
*1314 FILLER_34_150
*1315 FILLER_34_158
*1316 FILLER_34_172
*1317 FILLER_34_192
*1318 FILLER_34_213
*1319 FILLER_34_233
*1320 FILLER_34_243
*1321 FILLER_34_251
*1322 FILLER_34_257
*1323 FILLER_34_265
*1324 FILLER_34_27
*1325 FILLER_34_271
*1326 FILLER_34_283
*1327 FILLER_34_29
*1328 FILLER_34_295
*1329 FILLER_34_3
*1330 FILLER_34_307
*1331 FILLER_34_309
*1332 FILLER_34_321
*1333 FILLER_34_333
*1334 FILLER_34_345
*1335 FILLER_34_357
*1336 FILLER_34_363
*1337 FILLER_34_365
*1338 FILLER_34_377
*1339 FILLER_34_389
*1340 FILLER_34_401
*1341 FILLER_34_41
*1342 FILLER_34_53
*1343 FILLER_34_65
*1344 FILLER_34_77
*1345 FILLER_34_83
*1346 FILLER_34_85
*1347 FILLER_34_97
*1348 FILLER_35_105
*1349 FILLER_35_111
*1350 FILLER_35_113
*1351 FILLER_35_125
*1352 FILLER_35_137
*1353 FILLER_35_145
*1354 FILLER_35_15
*1355 FILLER_35_150
*1356 FILLER_35_164
*1357 FILLER_35_169
*1358 FILLER_35_180
*1359 FILLER_35_189
*1360 FILLER_35_209
*1361 FILLER_35_220
*1362 FILLER_35_241
*1363 FILLER_35_249
*1364 FILLER_35_257
*1365 FILLER_35_264
*1366 FILLER_35_27
*1367 FILLER_35_276
*1368 FILLER_35_281
*1369 FILLER_35_293
*1370 FILLER_35_3
*1371 FILLER_35_305
*1372 FILLER_35_317
*1373 FILLER_35_329
*1374 FILLER_35_335
*1375 FILLER_35_337
*1376 FILLER_35_349
*1377 FILLER_35_361
*1378 FILLER_35_373
*1379 FILLER_35_385
*1380 FILLER_35_39
*1381 FILLER_35_391
*1382 FILLER_35_393
*1383 FILLER_35_405
*1384 FILLER_35_51
*1385 FILLER_35_55
*1386 FILLER_35_57
*1387 FILLER_35_69
*1388 FILLER_35_81
*1389 FILLER_35_93
*1390 FILLER_36_109
*1391 FILLER_36_121
*1392 FILLER_36_133
*1393 FILLER_36_139
*1394 FILLER_36_141
*1395 FILLER_36_15
*1396 FILLER_36_153
*1397 FILLER_36_157
*1398 FILLER_36_160
*1399 FILLER_36_166
*1400 FILLER_36_180
*1401 FILLER_36_192
*1402 FILLER_36_213
*1403 FILLER_36_224
*1404 FILLER_36_234
*1405 FILLER_36_242
*1406 FILLER_36_250
*1407 FILLER_36_253
*1408 FILLER_36_265
*1409 FILLER_36_27
*1410 FILLER_36_277
*1411 FILLER_36_289
*1412 FILLER_36_29
*1413 FILLER_36_3
*1414 FILLER_36_301
*1415 FILLER_36_307
*1416 FILLER_36_309
*1417 FILLER_36_321
*1418 FILLER_36_333
*1419 FILLER_36_345
*1420 FILLER_36_357
*1421 FILLER_36_363
*1422 FILLER_36_365
*1423 FILLER_36_377
*1424 FILLER_36_389
*1425 FILLER_36_401
*1426 FILLER_36_41
*1427 FILLER_36_53
*1428 FILLER_36_65
*1429 FILLER_36_77
*1430 FILLER_36_83
*1431 FILLER_36_85
*1432 FILLER_36_97
*1433 FILLER_37_105
*1434 FILLER_37_111
*1435 FILLER_37_113
*1436 FILLER_37_125
*1437 FILLER_37_137
*1438 FILLER_37_149
*1439 FILLER_37_15
*1440 FILLER_37_161
*1441 FILLER_37_167
*1442 FILLER_37_169
*1443 FILLER_37_181
*1444 FILLER_37_190
*1445 FILLER_37_210
*1446 FILLER_37_220
*1447 FILLER_37_230
*1448 FILLER_37_237
*1449 FILLER_37_249
*1450 FILLER_37_261
*1451 FILLER_37_27
*1452 FILLER_37_273
*1453 FILLER_37_279
*1454 FILLER_37_281
*1455 FILLER_37_293
*1456 FILLER_37_3
*1457 FILLER_37_305
*1458 FILLER_37_317
*1459 FILLER_37_329
*1460 FILLER_37_335
*1461 FILLER_37_337
*1462 FILLER_37_349
*1463 FILLER_37_361
*1464 FILLER_37_373
*1465 FILLER_37_385
*1466 FILLER_37_39
*1467 FILLER_37_391
*1468 FILLER_37_393
*1469 FILLER_37_405
*1470 FILLER_37_51
*1471 FILLER_37_55
*1472 FILLER_37_57
*1473 FILLER_37_69
*1474 FILLER_37_81
*1475 FILLER_37_93
*1476 FILLER_38_109
*1477 FILLER_38_121
*1478 FILLER_38_133
*1479 FILLER_38_139
*1480 FILLER_38_141
*1481 FILLER_38_15
*1482 FILLER_38_153
*1483 FILLER_38_165
*1484 FILLER_38_171
*1485 FILLER_38_179
*1486 FILLER_38_184
*1487 FILLER_38_192
*1488 FILLER_38_197
*1489 FILLER_38_204
*1490 FILLER_38_214
*1491 FILLER_38_223
*1492 FILLER_38_229
*1493 FILLER_38_241
*1494 FILLER_38_249
*1495 FILLER_38_253
*1496 FILLER_38_265
*1497 FILLER_38_27
*1498 FILLER_38_277
*1499 FILLER_38_289
*1500 FILLER_38_29
*1501 FILLER_38_3
*1502 FILLER_38_301
*1503 FILLER_38_307
*1504 FILLER_38_309
*1505 FILLER_38_321
*1506 FILLER_38_333
*1507 FILLER_38_345
*1508 FILLER_38_357
*1509 FILLER_38_363
*1510 FILLER_38_365
*1511 FILLER_38_377
*1512 FILLER_38_389
*1513 FILLER_38_401
*1514 FILLER_38_41
*1515 FILLER_38_53
*1516 FILLER_38_65
*1517 FILLER_38_77
*1518 FILLER_38_83
*1519 FILLER_38_85
*1520 FILLER_38_97
*1521 FILLER_39_105
*1522 FILLER_39_111
*1523 FILLER_39_113
*1524 FILLER_39_125
*1525 FILLER_39_137
*1526 FILLER_39_149
*1527 FILLER_39_15
*1528 FILLER_39_161
*1529 FILLER_39_167
*1530 FILLER_39_169
*1531 FILLER_39_181
*1532 FILLER_39_193
*1533 FILLER_39_199
*1534 FILLER_39_208
*1535 FILLER_39_217
*1536 FILLER_39_223
*1537 FILLER_39_225
*1538 FILLER_39_237
*1539 FILLER_39_249
*1540 FILLER_39_261
*1541 FILLER_39_27
*1542 FILLER_39_273
*1543 FILLER_39_279
*1544 FILLER_39_281
*1545 FILLER_39_293
*1546 FILLER_39_3
*1547 FILLER_39_305
*1548 FILLER_39_317
*1549 FILLER_39_329
*1550 FILLER_39_335
*1551 FILLER_39_337
*1552 FILLER_39_349
*1553 FILLER_39_361
*1554 FILLER_39_373
*1555 FILLER_39_385
*1556 FILLER_39_39
*1557 FILLER_39_391
*1558 FILLER_39_393
*1559 FILLER_39_405
*1560 FILLER_39_51
*1561 FILLER_39_55
*1562 FILLER_39_57
*1563 FILLER_39_69
*1564 FILLER_39_81
*1565 FILLER_39_93
*1566 FILLER_3_105
*1567 FILLER_3_111
*1568 FILLER_3_113
*1569 FILLER_3_125
*1570 FILLER_3_137
*1571 FILLER_3_149
*1572 FILLER_3_15
*1573 FILLER_3_161
*1574 FILLER_3_167
*1575 FILLER_3_169
*1576 FILLER_3_181
*1577 FILLER_3_193
*1578 FILLER_3_205
*1579 FILLER_3_217
*1580 FILLER_3_223
*1581 FILLER_3_225
*1582 FILLER_3_237
*1583 FILLER_3_249
*1584 FILLER_3_261
*1585 FILLER_3_27
*1586 FILLER_3_273
*1587 FILLER_3_279
*1588 FILLER_3_281
*1589 FILLER_3_293
*1590 FILLER_3_3
*1591 FILLER_3_305
*1592 FILLER_3_317
*1593 FILLER_3_329
*1594 FILLER_3_335
*1595 FILLER_3_337
*1596 FILLER_3_349