*SPEF "ieee 1481-1999"
*DESIGN "Configuration"
*DATE "11:11:11 Fri 11 11, 1111"
*VENDOR "OpenRCX"
*PROGRAM "Parallel Extraction"
*VERSION "1.0"
*DESIGN_FLOW "NAME_SCOPE LOCAL" "PIN_CAP NONE"
*DIVIDER /
*DELIMITER :
*BUS_DELIMITER []
*T_UNIT 1 NS
*C_UNIT 1 PF
*R_UNIT 1 OHM
*L_UNIT 1 HENRY

*NAME_MAP
*1 clk
*2 net28
*3 net29
*4 net30
*5 net31
*6 net32
*7 net33
*8 net34
*9 net35
*10 net47
*11 net36
*12 net37
*13 net1
*14 net2
*15 net3
*16 net4
*17 net5
*18 net6
*19 net16
*20 net7
*21 net8
*22 net9
*23 net10
*24 net11
*25 net12
*26 net13
*27 net14
*28 net15
*29 net38
*30 net43
*31 net44
*32 net22
*33 net23
*34 net45
*35 net46
*36 net17
*37 net39
*38 net18
*39 net40
*40 net19
*41 net41
*42 net20
*43 net42
*44 net21
*46 net24
*47 net25
*48 net26
*49 net27
*50 FILLER_0_15
*51 FILLER_0_27
*52 FILLER_0_29
*53 FILLER_0_3
*54 FILLER_0_41
*55 FILLER_0_53
*56 FILLER_0_57
*57 FILLER_0_65
*58 FILLER_0_70
*59 FILLER_0_77
*60 FILLER_10_15
*61 FILLER_10_27
*62 FILLER_10_29
*63 FILLER_10_3
*64 FILLER_10_41
*65 FILLER_10_53
*66 FILLER_10_65
*67 FILLER_10_73
*68 FILLER_10_77
*69 FILLER_11_15
*70 FILLER_11_27
*71 FILLER_11_3
*72 FILLER_11_39
*73 FILLER_11_51
*74 FILLER_11_55
*75 FILLER_11_57
*76 FILLER_11_69
*77 FILLER_11_73
*78 FILLER_11_77
*79 FILLER_12_15
*80 FILLER_12_27
*81 FILLER_12_29
*82 FILLER_12_3
*83 FILLER_12_41
*84 FILLER_12_53
*85 FILLER_12_65
*86 FILLER_12_73
*87 FILLER_12_77
*88 FILLER_13_15
*89 FILLER_13_27
*90 FILLER_13_3
*91 FILLER_13_39
*92 FILLER_13_51
*93 FILLER_13_55
*94 FILLER_13_57
*95 FILLER_13_69
*96 FILLER_13_73
*97 FILLER_13_77
*98 FILLER_14_15
*99 FILLER_14_27
*100 FILLER_14_29
*101 FILLER_14_3
*102 FILLER_14_41
*103 FILLER_14_53
*104 FILLER_14_65
*105 FILLER_14_73
*106 FILLER_14_77
*107 FILLER_15_15
*108 FILLER_15_27
*109 FILLER_15_3
*110 FILLER_15_39
*111 FILLER_15_51
*112 FILLER_15_55
*113 FILLER_15_57
*114 FILLER_15_69
*115 FILLER_15_73
*116 FILLER_15_77
*117 FILLER_16_15
*118 FILLER_16_27
*119 FILLER_16_29
*120 FILLER_16_3
*121 FILLER_16_41
*122 FILLER_16_53
*123 FILLER_16_65
*124 FILLER_16_73
*125 FILLER_16_77
*126 FILLER_17_15
*127 FILLER_17_27
*128 FILLER_17_3
*129 FILLER_17_39
*130 FILLER_17_51
*131 FILLER_17_55
*132 FILLER_17_57
*133 FILLER_17_69
*134 FILLER_17_73
*135 FILLER_17_77
*136 FILLER_18_15
*137 FILLER_18_27
*138 FILLER_18_29
*139 FILLER_18_3
*140 FILLER_18_41
*141 FILLER_18_53
*142 FILLER_18_65
*143 FILLER_18_73
*144 FILLER_18_77
*145 FILLER_19_15
*146 FILLER_19_27
*147 FILLER_19_3
*148 FILLER_19_39
*149 FILLER_19_51
*150 FILLER_19_55
*151 FILLER_19_57
*152 FILLER_19_69
*153 FILLER_19_73
*154 FILLER_19_77
*155 FILLER_1_15
*156 FILLER_1_27
*157 FILLER_1_3
*158 FILLER_1_39
*159 FILLER_1_51
*160 FILLER_1_55
*161 FILLER_1_57
*162 FILLER_1_65
*163 FILLER_1_70
*164 FILLER_1_77
*165 FILLER_20_15
*166 FILLER_20_27
*167 FILLER_20_29
*168 FILLER_20_3
*169 FILLER_20_41
*170 FILLER_20_53
*171 FILLER_20_65
*172 FILLER_20_73
*173 FILLER_20_77
*174 FILLER_21_15
*175 FILLER_21_27
*176 FILLER_21_3
*177 FILLER_21_39
*178 FILLER_21_51
*179 FILLER_21_55
*180 FILLER_21_57
*181 FILLER_21_69
*182 FILLER_21_73
*183 FILLER_21_77
*184 FILLER_22_15
*185 FILLER_22_27
*186 FILLER_22_29
*187 FILLER_22_3
*188 FILLER_22_41
*189 FILLER_22_53
*190 FILLER_22_65
*191 FILLER_22_73
*192 FILLER_22_77
*193 FILLER_23_15
*194 FILLER_23_27
*195 FILLER_23_3
*196 FILLER_23_39
*197 FILLER_23_51
*198 FILLER_23_55
*199 FILLER_23_57
*200 FILLER_23_69
*201 FILLER_23_73
*202 FILLER_23_77
*203 FILLER_24_15
*204 FILLER_24_27
*205 FILLER_24_29
*206 FILLER_24_3
*207 FILLER_24_41
*208 FILLER_24_53
*209 FILLER_24_65
*210 FILLER_24_73
*211 FILLER_24_77
*212 FILLER_25_15
*213 FILLER_25_27
*214 FILLER_25_3
*215 FILLER_25_39
*216 FILLER_25_51
*217 FILLER_25_55
*218 FILLER_25_57
*219 FILLER_25_69
*220 FILLER_25_73
*221 FILLER_25_77
*222 FILLER_26_15
*223 FILLER_26_27
*224 FILLER_26_29
*225 FILLER_26_3
*226 FILLER_26_41
*227 FILLER_26_53
*228 FILLER_26_65
*229 FILLER_26_73
*230 FILLER_26_77
*231 FILLER_27_15
*232 FILLER_27_27
*233 FILLER_27_3
*234 FILLER_27_39
*235 FILLER_27_51
*236 FILLER_27_55
*237 FILLER_27_57
*238 FILLER_27_69
*239 FILLER_27_73
*240 FILLER_27_77
*241 FILLER_28_15
*242 FILLER_28_27
*243 FILLER_28_29
*244 FILLER_28_3
*245 FILLER_28_41
*246 FILLER_28_53
*247 FILLER_28_65
*248 FILLER_28_73
*249 FILLER_28_77
*250 FILLER_29_15
*251 FILLER_29_27
*252 FILLER_29_3
*253 FILLER_29_39
*254 FILLER_29_51
*255 FILLER_29_55
*256 FILLER_29_57
*257 FILLER_29_69
*258 FILLER_29_73
*259 FILLER_29_77
*260 FILLER_2_15
*261 FILLER_2_27
*262 FILLER_2_29
*263 FILLER_2_3
*264 FILLER_2_41
*265 FILLER_2_53
*266 FILLER_2_65
*267 FILLER_2_70
*268 FILLER_2_77
*269 FILLER_30_15
*270 FILLER_30_27
*271 FILLER_30_29
*272 FILLER_30_3
*273 FILLER_30_41
*274 FILLER_30_53
*275 FILLER_30_65
*276 FILLER_30_73
*277 FILLER_30_77
*278 FILLER_31_15
*279 FILLER_31_27
*280 FILLER_31_3
*281 FILLER_31_39
*282 FILLER_31_51
*283 FILLER_31_55
*284 FILLER_31_57
*285 FILLER_31_65
*286 FILLER_31_70
*287 FILLER_31_77
*288 FILLER_32_15
*289 FILLER_32_27
*290 FILLER_32_29
*291 FILLER_32_3
*292 FILLER_32_41
*293 FILLER_32_53
*294 FILLER_32_65
*295 FILLER_32_73
*296 FILLER_32_77
*297 FILLER_33_15
*298 FILLER_33_27
*299 FILLER_33_3
*300 FILLER_33_39
*301 FILLER_33_51
*302 FILLER_33_55
*303 FILLER_33_57
*304 FILLER_33_69
*305 FILLER_33_73
*306 FILLER_33_77
*307 FILLER_34_15
*308 FILLER_34_27
*309 FILLER_34_29
*310 FILLER_34_3
*311 FILLER_34_41
*312 FILLER_34_53
*313 FILLER_34_65
*314 FILLER_34_70
*315 FILLER_34_77
*316 FILLER_35_15
*317 FILLER_35_27
*318 FILLER_35_3
*319 FILLER_35_39
*320 FILLER_35_51
*321 FILLER_35_55
*322 FILLER_35_57
*323 FILLER_35_63
*324 FILLER_35_70
*325 FILLER_35_77
*326 FILLER_36_15
*327 FILLER_36_27
*328 FILLER_36_29
*329 FILLER_36_3
*330 FILLER_36_41
*331 FILLER_36_53
*332 FILLER_36_57
*333 FILLER_36_63
*334 FILLER_36_70
*335 FILLER_36_77
*336 FILLER_3_15
*337 FILLER_3_27
*338 FILLER_3_3
*339 FILLER_3_39
*340 FILLER_3_51
*341 FILLER_3_55
*342 FILLER_3_57
*343 FILLER_3_65
*344 FILLER_3_70
*345 FILLER_3_77
*346 FILLER_4_15
*347 FILLER_4_27
*348 FILLER_4_29
*349 FILLER_4_3
*350 FILLER_4_41
*351 FILLER_4_53
*352 FILLER_4_65
*353 FILLER_4_73
*354 FILLER_4_77
*355 FILLER_5_15
*356 FILLER_5_27
*357 FILLER_5_3
*358 FILLER_5_39
*359 FILLER_5_51
*360 FILLER_5_55
*361 FILLER_5_57
*362 FILLER_5_69
*363 FILLER_5_73
*364 FILLER_5_77
*365 FILLER_6_15
*366 FILLER_6_27
*367 FILLER_6_29
*368 FILLER_6_3
*369 FILLER_6_41
*370 FILLER_6_53
*371 FILLER_6_65
*372 FILLER_6_73
*373 FILLER_6_77
*374 FILLER_7_15
*375 FILLER_7_27
*376 FILLER_7_3
*377 FILLER_7_39
*378 FILLER_7_51
*379 FILLER_7_55
*380 FILLER_7_57
*381 FILLER_7_69
*382 FILLER_7_73
*383 FILLER_7_77
*384 FILLER_8_15
*385 FILLER_8_27
*386 FILLER_8_29
*387 FILLER_8_3
*388 FILLER_8_41
*389 FILLER_8_53
*390 FILLER_8_65
*391 FILLER_8_73
*392 FILLER_8_77
*393 FILLER_9_15
*394 FILLER_9_27
*395 FILLER_9_3
*396 FILLER_9_39
*397 FILLER_9_51
*398 FILLER_9_55
*399 FILLER_9_57
*400 FILLER_9_69
*401 FILLER_9_73
*402 FILLER_9_77
*403 PHY_0
*404 PHY_1
*405 PHY_10
*406 PHY_11
*407 PHY_12
*408 PHY_13
*409 PHY_14
*410 PHY_15
*411 PHY_16
*412 PHY_17
*413 PHY_18
*414 PHY_19
*415 PHY_2
*416 PHY_20
*417 PHY_21
*418 PHY_22
*419 PHY_23
*420 PHY_24
*421 PHY_25
*422 PHY_26
*423 PHY_27
*424 PHY_28
*425 PHY_29
*426 PHY_3
*427 PHY_30
*428 PHY_31
*429 PHY_32
*430 PHY_33
*431 PHY_34
*432 PHY_35
*433 PHY_36
*434 PHY_37
*435 PHY_38
*436 PHY_39
*437 PHY_4
*438 PHY_40
*439 PHY_41
*440 PHY_42
*441 PHY_43
*442 PHY_44
*443 PHY_45
*444 PHY_46
*445 PHY_47
*446 PHY_48
*447 PHY_49
*448 PHY_5
*449 PHY_50
*450 PHY_51
*451 PHY_52
*452 PHY_53
*453 PHY_54
*454 PHY_55
*455 PHY_56
*456 PHY_57
*457 PHY_58
*458 PHY_59
*459 PHY_6
*460 PHY_60
*461 PHY_61
*462 PHY_62
*463 PHY_63
*464 PHY_64
*465 PHY_65
*466 PHY_66
*467 PHY_67
*468 PHY_68
*469 PHY_69
*470 PHY_7
*471 PHY_70
*472 PHY_71
*473 PHY_72
*474 PHY_73
*475 PHY_8
*476 PHY_9
*477 TAP_100
*478 TAP_101
*479 TAP_102
*480 TAP_103
*481 TAP_104
*482 TAP_105
*483 TAP_106
*484 TAP_107
*485 TAP_108
*486 TAP_109
*487 TAP_110
*488 TAP_111
*489 TAP_112
*490 TAP_74
*491 TAP_75
*492 TAP_76
*493 TAP_77
*494 TAP_78
*495 TAP_79
*496 TAP_80
*497 TAP_81
*498 TAP_82
*499 TAP_83
*500 TAP_84
*501 TAP_85
*502 TAP_86
*503 TAP_87
*504 TAP_88
*505 TAP_89
*506 TAP_90
*507 TAP_91
*508 TAP_92
*509 TAP_93
*510 TAP_94
*511 TAP_95
*512 TAP_96
*513 TAP_97
*514 TAP_98
*515 TAP_99
*516 _00__38
*517 _01__39
*518 _02__40
*519 _03__41
*520 _04__42
*521 _05__43
*522 _06__44
*523 _07__45
*524 _08__46
*525 _09__47
*526 _10__1
*527 _11__2
*528 _12__3
*529 _13__4
*530 _14__5
*531 _15__6
*532 _16__7
*533 _17__8
*534 _18__9
*535 _19__10
*536 _20__11
*537 _21__12
*538 _22__13
*539 _23__14
*540 _24__15
*541 _25__16
*542 _26__17
*543 _27__18
*544 _28__19
*545 _29__20
*546 _30__21
*547 _31__22
*548 _32__23
*549 _33__24
*550 _34__25
*551 _35__26
*552 _36__27
*553 _37__28
*554 _38__29
*555 _39__30
*556 _40__31
*557 _41__32
*558 _42__33
*559 _43__34
*560 _44__35
*561 _45__36
*562 _46__37

*PORTS
clk I
core0Index[0] O
core0Index[1] O
core0Index[2] O
core0Index[3] O
core0Index[4] O
core0Index[5] O
core0Index[6] O
core0Index[7] O
core1Index[0] O
core1Index[1] O
core1Index[2] O
core1Index[3] O
core1Index[4] O
core1Index[5] O
core1Index[6] O
core1Index[7] O
manufacturerID[0] O
manufacturerID[10] O
manufacturerID[1] O
manufacturerID[2] O
manufacturerID[3] O
manufacturerID[4] O
manufacturerID[5] O
manufacturerID[6] O
manufacturerID[7] O
manufacturerID[8] O
manufacturerID[9] O
partID[0] O
partID[10] O
partID[11] O
partID[12] O
partID[13] O
partID[14] O
partID[15] O
partID[1] O
partID[2] O
partID[3] O
partID[4] O
partID[5] O
partID[6] O
partID[7] O
partID[8] O
partID[9] O
versionID[0] O
versionID[1] O
versionID[2] O
versionID[3] O

*D_NET *2 0.00216268
*CONN
*P core0Index[0] O
*I *553:LO O *D sky130_fd_sc_hd__conb_1
*CAP
1 core0Index[0] 0.000517302
2 *553:LO 0.000517302
3 core0Index[0] core0Index[1] 0.000861685
4 core0Index[0] core0Index[3] 0.000266388
*RES
1 *553:LO core0Index[0] 31.7657 
*END

*D_NET *3 0.0022865
*CONN
*P core0Index[1] O
*I *554:LO O *D sky130_fd_sc_hd__conb_1
*CAP
1 core0Index[1] 0.000553843
2 *554:LO 0.000553843
3 core0Index[1] core0Index[2] 0.000154124
4 core0Index[1] core0Index[3] 5.57581e-05
5 core0Index[1] core0Index[4] 8.81473e-05
6 core0Index[1] core0Index[5] 1.9101e-05
7 core0Index[0] core0Index[1] 0.000861685
*RES
1 *554:LO core0Index[1] 32.5656 
*END

*D_NET *4 0.0015092
*CONN
*P core0Index[2] O
*I *555:LO O *D sky130_fd_sc_hd__conb_1
*CAP
1 core0Index[2] 0.000609372
2 *555:LO 0.000609372
3 core0Index[2] core0Index[3] 0.00013633
4 core0Index[2] core0Index[4] 0
5 core0Index[1] core0Index[2] 0.000154124
*RES
1 *555:LO core0Index[2] 26.4876 
*END

*D_NET *5 0.00185165
*CONN
*P core0Index[3] O
*I *556:LO O *D sky130_fd_sc_hd__conb_1
*CAP
1 core0Index[3] 0.000502327
2 *556:LO 0.000502327
3 core0Index[3] core0Index[4] 0.00013633
4 core0Index[3] core0Index[5] 0.000252191
5 core0Index[0] core0Index[3] 0.000266388
6 core0Index[1] core0Index[3] 5.57581e-05
7 core0Index[2] core0Index[3] 0.00013633
*RES
1 *556:LO core0Index[3] 29.9211 
*END

*D_NET *6 0.0014837
*CONN
*P core0Index[4] O
*I *557:LO O *D sky130_fd_sc_hd__conb_1
*CAP
1 core0Index[4] 0.000566098
2 *557:LO 0.000566098
3 core0Index[4] core0Index[5] 0.000127029
4 core0Index[4] core0Index[6] 0
5 core0Index[1] core0Index[4] 8.81473e-05
6 core0Index[2] core0Index[4] 0
7 core0Index[3] core0Index[4] 0.00013633
*RES
1 *557:LO core0Index[4] 24.4163 
*END

*D_NET *7 0.0014135
*CONN
*P core0Index[5] O
*I *558:LO O *D sky130_fd_sc_hd__conb_1
*CAP
1 core0Index[5] 0.000441481
2 *558:LO 0.000441481
3 core0Index[5] core0Index[6] 0.000129888
4 core0Index[5] core0Index[7] 2.33103e-06
5 core0Index[1] core0Index[5] 1.9101e-05
6 core0Index[3] core0Index[5] 0.000252191
7 core0Index[4] core0Index[5] 0.000127029
*RES
1 *558:LO core0Index[5] 25.1216 
*END

*D_NET *8 0.00126548
*CONN
*P core0Index[6] O
*I *559:LO O *D sky130_fd_sc_hd__conb_1
*CAP
1 core0Index[6] 0.000492748
2 *559:LO 0.000492748
3 core0Index[6] core0Index[7] 0.000150093
4 core0Index[4] core0Index[6] 0
5 core0Index[5] core0Index[6] 0.000129888
*RES
1 *559:LO core0Index[6] 19.8435 
*END

*D_NET *9 0.00121415
*CONN
*P core0Index[7] O
*I *560:LO O *D sky130_fd_sc_hd__conb_1
*CAP
1 core0Index[7] 0.000465622
2 *560:LO 0.000465622
3 core0Index[7] core1Index[0] 0.000130485
4 core0Index[5] core0Index[7] 2.33103e-06
5 core0Index[6] core0Index[7] 0.000150093
*RES
1 *560:LO core0Index[7] 21.0943 
*END

*D_NET *10 0.000664008
*CONN
*P core1Index[0] O
*I *525:HI O *D sky130_fd_sc_hd__conb_1
*CAP
1 core1Index[0] 0.000200097
2 *525:HI 0.000200097
3 core1Index[0] core1Index[1] 0.000133329
4 core0Index[7] core1Index[0] 0.000130485
*RES
1 *525:HI core1Index[0] 18.4776 
*END

*D_NET *11 0.000664008
*CONN
*P core1Index[1] O
*I *561:LO O *D sky130_fd_sc_hd__conb_1
*CAP
1 core1Index[1] 0.000200097
2 *561:LO 0.000200097
3 core1Index[1] core1Index[2] 0.000130485
4 core1Index[0] core1Index[1] 0.000133329
*RES
1 *561:LO core1Index[1] 18.4776 
*END

*D_NET *12 0.000725058
*CONN
*P core1Index[2] O
*I *562:LO O *D sky130_fd_sc_hd__conb_1
*CAP
1 core1Index[2] 0.000230622
2 *562:LO 0.000230622
3 core1Index[2] core1Index[3] 0.000133329
4 core1Index[1] core1Index[2] 0.000130485
*RES
1 *562:LO core1Index[2] 19.3081 
*END

*D_NET *13 0.000693197
*CONN
*P core1Index[3] O
*I *526:LO O *D sky130_fd_sc_hd__conb_1
*CAP
1 core1Index[3] 0.000190779
2 *526:LO 0.000190779
3 core1Index[3] core1Index[4] 0.000178309
4 core1Index[2] core1Index[3] 0.000133329
*RES
1 *526:LO core1Index[3] 18.4776 
*END

*D_NET *14 0.000815511
*CONN
*P core1Index[4] O
*I *527:LO O *D sky130_fd_sc_hd__conb_1
*CAP
1 core1Index[4] 0.000244672
2 *527:LO 0.000244672
3 core1Index[4] core1Index[5] 0.000147858
4 core1Index[3] core1Index[4] 0.000178309
*RES
1 *527:LO core1Index[4] 20.1386 
*END

*D_NET *15 0.000706642
*CONN
*P core1Index[5] O
*I *528:LO O *D sky130_fd_sc_hd__conb_1
*CAP
1 core1Index[5] 0.000207636
2 *528:LO 0.000207636
3 core1Index[5] core1Index[6] 0.000143513
4 core1Index[4] core1Index[5] 0.000147858
*RES
1 *528:LO core1Index[5] 19.3081 
*END

*D_NET *16 0.000765063
*CONN
*P core1Index[6] O
*I *529:LO O *D sky130_fd_sc_hd__conb_1
*CAP
1 core1Index[6] 0.000236846
2 *529:LO 0.000236846
3 core1Index[6] core1Index[7] 0.000147858
4 core1Index[5] core1Index[6] 0.000143513
*RES
1 *529:LO core1Index[6] 20.1386 
*END

*D_NET *17 0.00072708
*CONN
*P core1Index[7] O
*I *530:LO O *D sky130_fd_sc_hd__conb_1
*CAP
1 core1Index[7] 0.000215682
2 *530:LO 0.000215682
3 core1Index[7] manufacturerID[0] 0.000147858
4 core1Index[6] core1Index[7] 0.000147858
*RES
1 *530:LO core1Index[7] 19.7234 
*END

*D_NET *18 0.000765063
*CONN
*P manufacturerID[0] O
*I *531:LO O *D sky130_fd_sc_hd__conb_1
*CAP
1 manufacturerID[0] 0.000236846
2 *531:LO 0.000236846
3 manufacturerID[0] manufacturerID[1] 0.000143513
4 core1Index[7] manufacturerID[0] 0.000147858
*RES
1 *531:LO manufacturerID[0] 20.1386 
*END

*D_NET *19 0.000821023
*CONN
*P manufacturerID[10] O
*I *541:LO O *D sky130_fd_sc_hd__conb_1
*CAP
1 manufacturerID[10] 0.000264826
2 *541:LO 0.000264826
3 manufacturerID[10] manufacturerID[9] 0.000143513
4 manufacturerID[10] partID[0] 0.000147858
*RES
1 *541:LO manufacturerID[10] 20.9691 
*END

*D_NET *20 0.000706642
*CONN
*P manufacturerID[1] O
*I *532:LO O *D sky130_fd_sc_hd__conb_1
*CAP
1 manufacturerID[1] 0.000207636
2 *532:LO 0.000207636
3 manufacturerID[1] manufacturerID[2] 0.000147858
4 manufacturerID[0] manufacturerID[1] 0.000143513
*RES
1 *532:LO manufacturerID[1] 19.3081 
*END

*D_NET *21 0.000765063
*CONN
*P manufacturerID[2] O
*I *533:LO O *D sky130_fd_sc_hd__conb_1
*CAP
1 manufacturerID[2] 0.000236846
2 *533:LO 0.000236846
3 manufacturerID[2] manufacturerID[3] 0.000143513
4 manufacturerID[1] manufacturerID[2] 0.000147858
*RES
1 *533:LO manufacturerID[2] 20.1386 
*END

*D_NET *22 0.000706642
*CONN
*P manufacturerID[3] O
*I *534:LO O *D sky130_fd_sc_hd__conb_1
*CAP
1 manufacturerID[3] 0.000207636
2 *534:LO 0.000207636
3 manufacturerID[3] manufacturerID[4] 0.000147858
4 manufacturerID[2] manufacturerID[3] 0.000143513
*RES
1 *534:LO manufacturerID[3] 19.3081 
*END

*D_NET *23 0.000765063
*CONN
*P manufacturerID[4] O
*I *535:LO O *D sky130_fd_sc_hd__conb_1
*CAP
1 manufacturerID[4] 0.000236846
2 *535:LO 0.000236846
3 manufacturerID[4] manufacturerID[5] 0.000143513
4 manufacturerID[3] manufacturerID[4] 0.000147858
*RES
1 *535:LO manufacturerID[4] 20.1386 
*END

*D_NET *24 0.000706642
*CONN
*P manufacturerID[5] O
*I *536:LO O *D sky130_fd_sc_hd__conb_1
*CAP
1 manufacturerID[5] 0.000207636
2 *536:LO 0.000207636
3 manufacturerID[5] manufacturerID[6] 0.000147858
4 manufacturerID[4] manufacturerID[5] 0.000143513
*RES
1 *536:LO manufacturerID[5] 19.3081 
*END

*D_NET *25 0.000756291
*CONN
*P manufacturerID[6] O
*I *537:LO O *D sky130_fd_sc_hd__conb_1
*CAP
1 manufacturerID[6] 0.000230287
2 *537:LO 0.000230287
3 manufacturerID[6] manufacturerID[7] 0.000147858
4 manufacturerID[5] manufacturerID[6] 0.000147858
*RES
1 *537:LO manufacturerID[6] 20.1386 
*END

*D_NET *26 0.000739802
*CONN
*P manufacturerID[7] O
*I *538:LO O *D sky130_fd_sc_hd__conb_1
*CAP
1 manufacturerID[7] 0.000200472
2 *538:LO 0.000200472
3 manufacturerID[7] manufacturerID[8] 0.000191001
4 manufacturerID[6] manufacturerID[7] 0.000147858
*RES
1 *538:LO manufacturerID[7] 19.3081 
*END

*D_NET *27 0.000854182
*CONN
*P manufacturerID[8] O
*I *539:LO O *D sky130_fd_sc_hd__conb_1
*CAP
1 manufacturerID[8] 0.000257662
2 *539:LO 0.000257662
3 manufacturerID[8] manufacturerID[9] 0.000147858
4 manufacturerID[7] manufacturerID[8] 0.000191001
*RES
1 *539:LO manufacturerID[8] 20.9691 
*END

*D_NET *28 0.000821023
*CONN
*P manufacturerID[9] O
*I *540:LO O *D sky130_fd_sc_hd__conb_1
*CAP
1 manufacturerID[9] 0.000264826
2 *540:LO 0.000264826
3 manufacturerID[10] manufacturerID[9] 0.000143513
4 manufacturerID[8] manufacturerID[9] 0.000147858
*RES
1 *540:LO manufacturerID[9] 20.9691 
*END

*D_NET *29 0.000821023
*CONN
*P partID[0] O
*I *516:HI O *D sky130_fd_sc_hd__conb_1
*CAP
1 partID[0] 0.000264826
2 *516:HI 0.000264826
3 partID[0] partID[1] 0.000143513
4 manufacturerID[10] partID[0] 0.000147858
*RES
1 *516:HI partID[0] 20.9691 
*END

*D_NET *30 0.00062462
*CONN
*P partID[10] O
*I *521:HI O *D sky130_fd_sc_hd__conb_1
*CAP
1 partID[10] 0.000168797
2 *521:HI 0.000168797
3 partID[10] partID[11] 0.000143513
4 partID[10] partID[9] 0.000143513
*RES
1 *521:HI partID[10] 18.4776 
*END

*D_NET *31 0.00062462
*CONN
*P partID[11] O
*I *522:HI O *D sky130_fd_sc_hd__conb_1
*CAP
1 partID[11] 0.000168797
2 *522:HI 0.000168797
3 partID[11] partID[12] 0.000143513
4 partID[10] partID[11] 0.000143513
*RES
1 *522:HI partID[11] 18.4776 
*END

*D_NET *32 0.000615848
*CONN
*P partID[12] O
*I *547:LO O *D sky130_fd_sc_hd__conb_1
*CAP
1 partID[12] 0.000162238
2 *547:LO 0.000162238
3 partID[12] partID[13] 0.000147858
4 partID[11] partID[12] 0.000143513
*RES
1 *547:LO partID[12] 18.4776 
*END

*D_NET *33 0.00111762
*CONN
*P partID[13] O
*I *548:LO O *D sky130_fd_sc_hd__conb_1
*CAP
1 partID[13] 0.00041095
2 *548:LO 0.00041095
3 partID[13] partID[14] 0.000147858
4 partID[12] partID[13] 0.000147858
*RES
1 *548:LO partID[13] 19.013 
*END

*D_NET *34 0.000634033
*CONN
*P partID[14] O
*I *523:HI O *D sky130_fd_sc_hd__conb_1
*CAP
1 partID[14] 0.000163357
2 *523:HI 0.000163357
3 partID[14] partID[15] 0.000152189
4 partID[14] versionID[2] 7.27245e-06
5 partID[13] partID[14] 0.000147858
*RES
1 *523:HI partID[14] 18.4776 
*END

*D_NET *35 0.0011189
*CONN
*P partID[15] O
*I *524:HI O *D sky130_fd_sc_hd__conb_1
*CAP
1 partID[15] 0.000417365
2 *524:HI 0.000417365
3 partID[15] versionID[0] 0.000131985
4 partID[15] versionID[2] 0
5 partID[14] partID[15] 0.000152189
*RES
1 *524:HI partID[15] 24.1075 
*END

*D_NET *36 0.000821023
*CONN
*P partID[1] O
*I *542:LO O *D sky130_fd_sc_hd__conb_1
*CAP
1 partID[1] 0.000264826
2 *542:LO 0.000264826
3 partID[1] partID[2] 0.000147858
4 partID[0] partID[1] 0.000143513
*RES
1 *542:LO partID[1] 20.9691 
*END

*D_NET *37 0.000821023
*CONN
*P partID[2] O
*I *517:HI O *D sky130_fd_sc_hd__conb_1
*CAP
1 partID[2] 0.000264826
2 *517:HI 0.000264826
3 partID[2] partID[3] 0.000143513
4 partID[1] partID[2] 0.000147858
*RES
1 *517:HI partID[2] 20.9691 
*END

*D_NET *38 0.000847914
*CONN
*P partID[3] O
*I *543:LO O *D sky130_fd_sc_hd__conb_1
*CAP
1 partID[3] 0.000284035
2 *543:LO 0.000284035
3 partID[3] partID[4] 0.00013633
4 partID[3] partID[5] 0
5 partID[2] partID[3] 0.000143513
*RES
1 *543:LO partID[3] 21.3844 
*END

*D_NET *39 0.000848882
*CONN
*P partID[4] O
*I *518:HI O *D sky130_fd_sc_hd__conb_1
*CAP
1 partID[4] 0.000288111
2 *518:HI 0.000288111
3 partID[4] partID[5] 0.00013633
4 partID[3] partID[4] 0.00013633
*RES
1 *518:HI partID[4] 21.616 
*END

*D_NET *40 0.000827078
*CONN
*P partID[5] O
*I *544:LO O *D sky130_fd_sc_hd__conb_1
*CAP
1 partID[5] 0.000273617
2 *544:LO 0.000273617
3 partID[5] partID[6] 0.000143513
4 partID[3] partID[5] 0
5 partID[4] partID[5] 0.00013633
*RES
1 *544:LO partID[5] 20.9691 
*END

*D_NET *41 0.000821023
*CONN
*P partID[6] O
*I *519:HI O *D sky130_fd_sc_hd__conb_1
*CAP
1 partID[6] 0.000264826
2 *519:HI 0.000264826
3 partID[6] partID[7] 0.000147858
4 partID[5] partID[6] 0.000143513
*RES
1 *519:HI partID[6] 20.9691 
*END

*D_NET *42 0.000821023
*CONN
*P partID[7] O
*I *545:LO O *D sky130_fd_sc_hd__conb_1
*CAP
1 partID[7] 0.000264826
2 *545:LO 0.000264826
3 partID[7] partID[8] 0.000143513
4 partID[6] partID[7] 0.000147858
*RES
1 *545:LO partID[7] 20.9691 
*END

*D_NET *43 0.000902191
*CONN
*P partID[8] O
*I *520:HI O *D sky130_fd_sc_hd__conb_1
*CAP
1 partID[8] 0.000281507
2 *520:HI 0.000281507
3 partID[8] partID[9] 0.000195663
4 partID[7] partID[8] 0.000143513
*RES
1 *520:HI partID[8] 21.3844 
*END

*D_NET *44 0.00109536
*CONN
*P partID[9] O
*I *546:LO O *D sky130_fd_sc_hd__conb_1
*CAP
1 partID[9] 0.000378094
2 *546:LO 0.000378094
3 partID[10] partID[9] 0.000143513
4 partID[8] partID[9] 0.000195663
*RES
1 *546:LO partID[9] 19.013 
*END

*D_NET *46 0.00238901
*CONN
*P versionID[0] O
*I *549:LO O *D sky130_fd_sc_hd__conb_1
*CAP
1 versionID[0] 0.000807548
2 *549:LO 0.000807548
3 versionID[0] versionID[1] 0.000641927
4 partID[15] versionID[0] 0.000131985
*RES
1 *549:LO versionID[0] 28.5825 
*END

*D_NET *47 0.00255711
*CONN
*P versionID[1] O
*I *550:LO O *D sky130_fd_sc_hd__conb_1
*CAP
1 versionID[1] 0.000588277
2 *550:LO 0.000588277
3 versionID[1] versionID[2] 0.000178097
4 versionID[1] versionID[3] 0.000560535
5 versionID[0] versionID[1] 0.000641927
*RES
1 *550:LO versionID[1] 29.6474 
*END

*D_NET *48 0.0025524
*CONN
*P versionID[2] O
*I *551:LO O *D sky130_fd_sc_hd__conb_1
*CAP
1 versionID[2] 0.00109447
2 *551:LO 0.00109447
3 versionID[2] versionID[3] 0.000178097
4 partID[14] versionID[2] 7.27245e-06
5 partID[15] versionID[2] 0
6 versionID[1] versionID[2] 0.000178097
*RES
1 *551:LO versionID[2] 39.3654 
*END

*D_NET *49 0.00311025
*CONN
*P versionID[3] O
*I *552:LO O *D sky130_fd_sc_hd__conb_1
*CAP
1 versionID[3] 0.00118581
2 *552:LO 0.00118581
3 versionID[1] versionID[3] 0.000560535
4 versionID[2] versionID[3] 0.000178097
*RES
1 *552:LO versionID[3] 40.0811 
*END
