*SPEF "ieee 1481-1999"
*DESIGN "ExperiarCore"
*DATE "11:11:11 Fri 11 11, 1111"
*VENDOR "OpenRCX"
*PROGRAM "Parallel Extraction"
*VERSION "1.0"
*DESIGN_FLOW "NAME_SCOPE LOCAL" "PIN_CAP NONE"
*DIVIDER /
*DELIMITER :
*BUS_DELIMITER []
*T_UNIT 1 NS
*C_UNIT 1 PF
*R_UNIT 1 OHM
*L_UNIT 1 HENRY

*NAME_MAP
*1 clk
*2 probe_takeBranch
*5 net1
*6 ANTENNA__0__A
*7 ANTENNA_output1_A
*8 FILLER_0_1005
*9 FILLER_0_1009
*10 FILLER_0_1021
*11 FILLER_0_1033
*12 FILLER_0_1037
*13 FILLER_0_1049
*14 FILLER_0_1061
*15 FILLER_0_1065
*16 FILLER_0_1077
*17 FILLER_0_1089
*18 FILLER_0_109
*19 FILLER_0_1093
*20 FILLER_0_1105
*21 FILLER_0_1117
*22 FILLER_0_1121
*23 FILLER_0_113
*24 FILLER_0_1133
*25 FILLER_0_1145
*26 FILLER_0_1149
*27 FILLER_0_1161
*28 FILLER_0_1173
*29 FILLER_0_1177
*30 FILLER_0_1189
*31 FILLER_0_1201
*32 FILLER_0_1205
*33 FILLER_0_1217
*34 FILLER_0_1229
*35 FILLER_0_1233
*36 FILLER_0_1245
*37 FILLER_0_125
*38 FILLER_0_1257
*39 FILLER_0_1261
*40 FILLER_0_1273
*41 FILLER_0_1285
*42 FILLER_0_1289
*43 FILLER_0_1301
*44 FILLER_0_1313
*45 FILLER_0_1317
*46 FILLER_0_1329
*47 FILLER_0_1341
*48 FILLER_0_1345
*49 FILLER_0_1357
*50 FILLER_0_1369
*51 FILLER_0_137
*52 FILLER_0_1373
*53 FILLER_0_1385
*54 FILLER_0_1397
*55 FILLER_0_1401
*56 FILLER_0_141
*57 FILLER_0_1413
*58 FILLER_0_1425
*59 FILLER_0_1429
*60 FILLER_0_1441
*61 FILLER_0_1453
*62 FILLER_0_1457
*63 FILLER_0_1469
*64 FILLER_0_1481
*65 FILLER_0_1485
*66 FILLER_0_1497
*67 FILLER_0_15
*68 FILLER_0_1509
*69 FILLER_0_1513
*70 FILLER_0_1525
*71 FILLER_0_153
*72 FILLER_0_1537
*73 FILLER_0_1541
*74 FILLER_0_1553
*75 FILLER_0_1565
*76 FILLER_0_1569
*77 FILLER_0_1581
*78 FILLER_0_1593
*79 FILLER_0_1597
*80 FILLER_0_1609
*81 FILLER_0_1621
*82 FILLER_0_1625
*83 FILLER_0_1637
*84 FILLER_0_1649
*85 FILLER_0_165
*86 FILLER_0_1653
*87 FILLER_0_1665
*88 FILLER_0_1677
*89 FILLER_0_1681
*90 FILLER_0_169
*91 FILLER_0_1693
*92 FILLER_0_1705
*93 FILLER_0_1709
*94 FILLER_0_1721
*95 FILLER_0_1733
*96 FILLER_0_1737
*97 FILLER_0_1749
*98 FILLER_0_1761
*99 FILLER_0_1765
*100 FILLER_0_1777
*101 FILLER_0_1789
*102 FILLER_0_1793
*103 FILLER_0_1805
*104 FILLER_0_181
*105 FILLER_0_1817
*106 FILLER_0_1821
*107 FILLER_0_1833
*108 FILLER_0_1845
*109 FILLER_0_1849
*110 FILLER_0_1861
*111 FILLER_0_1873
*112 FILLER_0_1877
*113 FILLER_0_1889
*114 FILLER_0_1901
*115 FILLER_0_1905
*116 FILLER_0_1917
*117 FILLER_0_193
*118 FILLER_0_197
*119 FILLER_0_209
*120 FILLER_0_221
*121 FILLER_0_225
*122 FILLER_0_237
*123 FILLER_0_249
*124 FILLER_0_253
*125 FILLER_0_265
*126 FILLER_0_27
*127 FILLER_0_277
*128 FILLER_0_281
*129 FILLER_0_29
*130 FILLER_0_293
*131 FILLER_0_3
*132 FILLER_0_305
*133 FILLER_0_309
*134 FILLER_0_321
*135 FILLER_0_333
*136 FILLER_0_337
*137 FILLER_0_349
*138 FILLER_0_361
*139 FILLER_0_365
*140 FILLER_0_377
*141 FILLER_0_389
*142 FILLER_0_393
*143 FILLER_0_405
*144 FILLER_0_41
*145 FILLER_0_417
*146 FILLER_0_421
*147 FILLER_0_433
*148 FILLER_0_445
*149 FILLER_0_449
*150 FILLER_0_461
*151 FILLER_0_473
*152 FILLER_0_477
*153 FILLER_0_489
*154 FILLER_0_501
*155 FILLER_0_505
*156 FILLER_0_517
*157 FILLER_0_529
*158 FILLER_0_53
*159 FILLER_0_533
*160 FILLER_0_545
*161 FILLER_0_557
*162 FILLER_0_561
*163 FILLER_0_57
*164 FILLER_0_573
*165 FILLER_0_585
*166 FILLER_0_589
*167 FILLER_0_601
*168 FILLER_0_613
*169 FILLER_0_617
*170 FILLER_0_629
*171 FILLER_0_641
*172 FILLER_0_645
*173 FILLER_0_657
*174 FILLER_0_669
*175 FILLER_0_673
*176 FILLER_0_685
*177 FILLER_0_69
*178 FILLER_0_697
*179 FILLER_0_701
*180 FILLER_0_713
*181 FILLER_0_725
*182 FILLER_0_729
*183 FILLER_0_741
*184 FILLER_0_753
*185 FILLER_0_757
*186 FILLER_0_769
*187 FILLER_0_781
*188 FILLER_0_785
*189 FILLER_0_797
*190 FILLER_0_809
*191 FILLER_0_81
*192 FILLER_0_813
*193 FILLER_0_825
*194 FILLER_0_837
*195 FILLER_0_841
*196 FILLER_0_85
*197 FILLER_0_853
*198 FILLER_0_865
*199 FILLER_0_869
*200 FILLER_0_881
*201 FILLER_0_893
*202 FILLER_0_897
*203 FILLER_0_909
*204 FILLER_0_921
*205 FILLER_0_925
*206 FILLER_0_937
*207 FILLER_0_949
*208 FILLER_0_953
*209 FILLER_0_965
*210 FILLER_0_97
*211 FILLER_0_970
*212 FILLER_0_976
*213 FILLER_0_981
*214 FILLER_0_993
*215 FILLER_100_1005
*216 FILLER_100_1017
*217 FILLER_100_1029
*218 FILLER_100_1035
*219 FILLER_100_1037
*220 FILLER_100_1049
*221 FILLER_100_1061
*222 FILLER_100_1073
*223 FILLER_100_1085
*224 FILLER_100_109
*225 FILLER_100_1091
*226 FILLER_100_1093
*227 FILLER_100_1105
*228 FILLER_100_1117
*229 FILLER_100_1129
*230 FILLER_100_1141
*231 FILLER_100_1147
*232 FILLER_100_1149
*233 FILLER_100_1161
*234 FILLER_100_1173
*235 FILLER_100_1185
*236 FILLER_100_1197
*237 FILLER_100_1203
*238 FILLER_100_1205
*239 FILLER_100_121
*240 FILLER_100_1217
*241 FILLER_100_1229
*242 FILLER_100_1241
*243 FILLER_100_1253
*244 FILLER_100_1259
*245 FILLER_100_1261
*246 FILLER_100_1273
*247 FILLER_100_1285
*248 FILLER_100_1297
*249 FILLER_100_1309
*250 FILLER_100_1315
*251 FILLER_100_1317
*252 FILLER_100_1329
*253 FILLER_100_133
*254 FILLER_100_1341
*255 FILLER_100_1353
*256 FILLER_100_1365
*257 FILLER_100_1371
*258 FILLER_100_1373
*259 FILLER_100_1385
*260 FILLER_100_139
*261 FILLER_100_1397
*262 FILLER_100_1409
*263 FILLER_100_141
*264 FILLER_100_1421
*265 FILLER_100_1427
*266 FILLER_100_1429
*267 FILLER_100_1441
*268 FILLER_100_1453
*269 FILLER_100_1465
*270 FILLER_100_1477
*271 FILLER_100_1483
*272 FILLER_100_1485
*273 FILLER_100_1497
*274 FILLER_100_15
*275 FILLER_100_1509
*276 FILLER_100_1521
*277 FILLER_100_153
*278 FILLER_100_1533
*279 FILLER_100_1539
*280 FILLER_100_1541
*281 FILLER_100_1553
*282 FILLER_100_1565
*283 FILLER_100_1577
*284 FILLER_100_1589
*285 FILLER_100_1595
*286 FILLER_100_1597
*287 FILLER_100_1609
*288 FILLER_100_1621
*289 FILLER_100_1633
*290 FILLER_100_1645
*291 FILLER_100_165
*292 FILLER_100_1651
*293 FILLER_100_1653
*294 FILLER_100_1665
*295 FILLER_100_1677
*296 FILLER_100_1689
*297 FILLER_100_1701
*298 FILLER_100_1707
*299 FILLER_100_1709
*300 FILLER_100_1721
*301 FILLER_100_1733
*302 FILLER_100_1745
*303 FILLER_100_1757
*304 FILLER_100_1763
*305 FILLER_100_1765
*306 FILLER_100_177
*307 FILLER_100_1777
*308 FILLER_100_1789
*309 FILLER_100_1801
*310 FILLER_100_1813
*311 FILLER_100_1819
*312 FILLER_100_1821
*313 FILLER_100_1833
*314 FILLER_100_1845
*315 FILLER_100_1857
*316 FILLER_100_1869
*317 FILLER_100_1875
*318 FILLER_100_1877
*319 FILLER_100_1889
*320 FILLER_100_189
*321 FILLER_100_1901
*322 FILLER_100_1913
*323 FILLER_100_1925
*324 FILLER_100_195
*325 FILLER_100_197
*326 FILLER_100_209
*327 FILLER_100_221
*328 FILLER_100_233
*329 FILLER_100_245
*330 FILLER_100_251
*331 FILLER_100_253
*332 FILLER_100_265
*333 FILLER_100_27
*334 FILLER_100_277
*335 FILLER_100_289
*336 FILLER_100_29
*337 FILLER_100_3
*338 FILLER_100_301
*339 FILLER_100_307
*340 FILLER_100_309
*341 FILLER_100_321
*342 FILLER_100_333
*343 FILLER_100_345
*344 FILLER_100_357
*345 FILLER_100_363
*346 FILLER_100_365
*347 FILLER_100_377
*348 FILLER_100_389
*349 FILLER_100_401
*350 FILLER_100_41
*351 FILLER_100_413
*352 FILLER_100_419
*353 FILLER_100_421
*354 FILLER_100_433
*355 FILLER_100_445
*356 FILLER_100_457
*357 FILLER_100_469
*358 FILLER_100_475
*359 FILLER_100_477
*360 FILLER_100_489
*361 FILLER_100_501
*362 FILLER_100_513
*363 FILLER_100_525
*364 FILLER_100_53
*365 FILLER_100_531
*366 FILLER_100_533
*367 FILLER_100_545
*368 FILLER_100_557
*369 FILLER_100_569
*370 FILLER_100_581
*371 FILLER_100_587
*372 FILLER_100_589
*373 FILLER_100_601
*374 FILLER_100_613
*375 FILLER_100_625
*376 FILLER_100_637
*377 FILLER_100_643
*378 FILLER_100_645
*379 FILLER_100_65
*380 FILLER_100_657
*381 FILLER_100_669
*382 FILLER_100_681
*383 FILLER_100_693
*384 FILLER_100_699
*385 FILLER_100_701
*386 FILLER_100_713
*387 FILLER_100_725
*388 FILLER_100_737
*389 FILLER_100_749
*390 FILLER_100_755
*391 FILLER_100_757
*392 FILLER_100_769
*393 FILLER_100_77
*394 FILLER_100_781
*395 FILLER_100_793
*396 FILLER_100_805
*397 FILLER_100_811
*398 FILLER_100_813
*399 FILLER_100_825
*400 FILLER_100_83
*401 FILLER_100_837
*402 FILLER_100_849
*403 FILLER_100_85
*404 FILLER_100_861
*405 FILLER_100_867
*406 FILLER_100_869
*407 FILLER_100_881
*408 FILLER_100_893
*409 FILLER_100_905
*410 FILLER_100_917
*411 FILLER_100_923
*412 FILLER_100_925
*413 FILLER_100_937
*414 FILLER_100_949
*415 FILLER_100_961
*416 FILLER_100_97
*417 FILLER_100_973
*418 FILLER_100_979
*419 FILLER_100_981
*420 FILLER_100_993
*421 FILLER_101_1001
*422 FILLER_101_1007
*423 FILLER_101_1009
*424 FILLER_101_1021
*425 FILLER_101_1033
*426 FILLER_101_1045
*427 FILLER_101_105
*428 FILLER_101_1057
*429 FILLER_101_1063
*430 FILLER_101_1065
*431 FILLER_101_1077
*432 FILLER_101_1089
*433 FILLER_101_1101
*434 FILLER_101_111
*435 FILLER_101_1113
*436 FILLER_101_1119
*437 FILLER_101_1121
*438 FILLER_101_113
*439 FILLER_101_1133
*440 FILLER_101_1145
*441 FILLER_101_1157
*442 FILLER_101_1169
*443 FILLER_101_1175
*444 FILLER_101_1177
*445 FILLER_101_1189
*446 FILLER_101_1201
*447 FILLER_101_1213
*448 FILLER_101_1225
*449 FILLER_101_1231
*450 FILLER_101_1233
*451 FILLER_101_1245
*452 FILLER_101_125
*453 FILLER_101_1257
*454 FILLER_101_1269
*455 FILLER_101_1281
*456 FILLER_101_1287
*457 FILLER_101_1289
*458 FILLER_101_1301
*459 FILLER_101_1313
*460 FILLER_101_1325
*461 FILLER_101_1337
*462 FILLER_101_1343
*463 FILLER_101_1345
*464 FILLER_101_1357
*465 FILLER_101_1369
*466 FILLER_101_137
*467 FILLER_101_1381
*468 FILLER_101_1393
*469 FILLER_101_1399
*470 FILLER_101_1401
*471 FILLER_101_1413
*472 FILLER_101_1425
*473 FILLER_101_1437
*474 FILLER_101_1449
*475 FILLER_101_1455
*476 FILLER_101_1457
*477 FILLER_101_1469
*478 FILLER_101_1481
*479 FILLER_101_149
*480 FILLER_101_1493
*481 FILLER_101_15
*482 FILLER_101_1505
*483 FILLER_101_1511
*484 FILLER_101_1513
*485 FILLER_101_1525
*486 FILLER_101_1537
*487 FILLER_101_1549
*488 FILLER_101_1561
*489 FILLER_101_1567
*490 FILLER_101_1569
*491 FILLER_101_1581
*492 FILLER_101_1593
*493 FILLER_101_1605
*494 FILLER_101_161
*495 FILLER_101_1617
*496 FILLER_101_1623
*497 FILLER_101_1625
*498 FILLER_101_1637
*499 FILLER_101_1649
*500 FILLER_101_1661
*501 FILLER_101_167
*502 FILLER_101_1673
*503 FILLER_101_1679
*504 FILLER_101_1681
*505 FILLER_101_169
*506 FILLER_101_1693
*507 FILLER_101_1705
*508 FILLER_101_1717
*509 FILLER_101_1729
*510 FILLER_101_1735
*511 FILLER_101_1737
*512 FILLER_101_1749
*513 FILLER_101_1761
*514 FILLER_101_1773
*515 FILLER_101_1785
*516 FILLER_101_1791
*517 FILLER_101_1793
*518 FILLER_101_1805
*519 FILLER_101_181
*520 FILLER_101_1817
*521 FILLER_101_1829
*522 FILLER_101_1841
*523 FILLER_101_1847
*524 FILLER_101_1849
*525 FILLER_101_1861
*526 FILLER_101_1873
*527 FILLER_101_1885
*528 FILLER_101_1897
*529 FILLER_101_1903
*530 FILLER_101_1905
*531 FILLER_101_1917
*532 FILLER_101_193
*533 FILLER_101_205
*534 FILLER_101_217
*535 FILLER_101_223
*536 FILLER_101_225
*537 FILLER_101_237
*538 FILLER_101_249
*539 FILLER_101_261
*540 FILLER_101_27
*541 FILLER_101_273
*542 FILLER_101_279
*543 FILLER_101_281
*544 FILLER_101_293
*545 FILLER_101_3
*546 FILLER_101_305
*547 FILLER_101_317
*548 FILLER_101_329
*549 FILLER_101_335
*550 FILLER_101_337
*551 FILLER_101_349
*552 FILLER_101_361
*553 FILLER_101_373
*554 FILLER_101_385
*555 FILLER_101_39
*556 FILLER_101_391
*557 FILLER_101_393
*558 FILLER_101_405
*559 FILLER_101_417
*560 FILLER_101_429
*561 FILLER_101_441
*562 FILLER_101_447
*563 FILLER_101_449
*564 FILLER_101_461
*565 FILLER_101_473
*566 FILLER_101_485
*567 FILLER_101_497
*568 FILLER_101_503
*569 FILLER_101_505
*570 FILLER_101_51
*571 FILLER_101_517
*572 FILLER_101_529
*573 FILLER_101_541
*574 FILLER_101_55
*575 FILLER_101_553
*576 FILLER_101_559
*577 FILLER_101_561
*578 FILLER_101_57
*579 FILLER_101_573
*580 FILLER_101_585
*581 FILLER_101_597
*582 FILLER_101_609
*583 FILLER_101_615
*584 FILLER_101_617
*585 FILLER_101_629
*586 FILLER_101_641
*587 FILLER_101_653
*588 FILLER_101_665
*589 FILLER_101_671
*590 FILLER_101_673
*591 FILLER_101_685
*592 FILLER_101_69
*593 FILLER_101_697
*594 FILLER_101_709
*595 FILLER_101_721
*596 FILLER_101_727
*597 FILLER_101_729
*598 FILLER_101_741
*599 FILLER_101_753
*600 FILLER_101_765
*601 FILLER_101_777
*602 FILLER_101_783
*603 FILLER_101_785
*604 FILLER_101_797
*605 FILLER_101_809
*606 FILLER_101_81
*607 FILLER_101_821
*608 FILLER_101_833
*609 FILLER_101_839
*610 FILLER_101_841
*611 FILLER_101_853
*612 FILLER_101_865
*613 FILLER_101_877
*614 FILLER_101_889
*615 FILLER_101_895
*616 FILLER_101_897
*617 FILLER_101_909
*618 FILLER_101_921
*619 FILLER_101_93
*620 FILLER_101_933
*621 FILLER_101_945
*622 FILLER_101_951
*623 FILLER_101_953
*624 FILLER_101_965
*625 FILLER_101_977
*626 FILLER_101_989
*627 FILLER_102_1005
*628 FILLER_102_1017
*629 FILLER_102_1029
*630 FILLER_102_1035
*631 FILLER_102_1037
*632 FILLER_102_1049
*633 FILLER_102_1061
*634 FILLER_102_1073
*635 FILLER_102_1085
*636 FILLER_102_109
*637 FILLER_102_1091
*638 FILLER_102_1093
*639 FILLER_102_1105
*640 FILLER_102_1117
*641 FILLER_102_1129
*642 FILLER_102_1141
*643 FILLER_102_1147
*644 FILLER_102_1149
*645 FILLER_102_1161
*646 FILLER_102_1173
*647 FILLER_102_1185
*648 FILLER_102_1197
*649 FILLER_102_1203
*650 FILLER_102_1205
*651 FILLER_102_121
*652 FILLER_102_1217
*653 FILLER_102_1229
*654 FILLER_102_1241
*655 FILLER_102_1253
*656 FILLER_102_1259
*657 FILLER_102_1261
*658 FILLER_102_1273
*659 FILLER_102_1285
*660 FILLER_102_1297
*661 FILLER_102_1309
*662 FILLER_102_1315
*663 FILLER_102_1317
*664 FILLER_102_1329
*665 FILLER_102_133
*666 FILLER_102_1341
*667 FILLER_102_1353
*668 FILLER_102_1365
*669 FILLER_102_1371
*670 FILLER_102_1373
*671 FILLER_102_1385
*672 FILLER_102_139
*673 FILLER_102_1397
*674 FILLER_102_1409
*675 FILLER_102_141
*676 FILLER_102_1421
*677 FILLER_102_1427
*678 FILLER_102_1429
*679 FILLER_102_1441
*680 FILLER_102_1453
*681 FILLER_102_1465
*682 FILLER_102_1477
*683 FILLER_102_1483
*684 FILLER_102_1485
*685 FILLER_102_1497
*686 FILLER_102_15
*687 FILLER_102_1509
*688 FILLER_102_1521
*689 FILLER_102_153
*690 FILLER_102_1533
*691 FILLER_102_1539
*692 FILLER_102_1541
*693 FILLER_102_1553
*694 FILLER_102_1565
*695 FILLER_102_1577
*696 FILLER_102_1589
*697 FILLER_102_1595
*698 FILLER_102_1597
*699 FILLER_102_1609
*700 FILLER_102_1621
*701 FILLER_102_1633
*702 FILLER_102_1645
*703 FILLER_102_165
*704 FILLER_102_1651
*705 FILLER_102_1653
*706 FILLER_102_1665
*707 FILLER_102_1677
*708 FILLER_102_1689
*709 FILLER_102_1701
*710 FILLER_102_1707
*711 FILLER_102_1709
*712 FILLER_102_1721
*713 FILLER_102_1733
*714 FILLER_102_1745
*715 FILLER_102_1757
*716 FILLER_102_1763
*717 FILLER_102_1765
*718 FILLER_102_177
*719 FILLER_102_1777
*720 FILLER_102_1789
*721 FILLER_102_1801
*722 FILLER_102_1813
*723 FILLER_102_1819
*724 FILLER_102_1821
*725 FILLER_102_1833
*726 FILLER_102_1845
*727 FILLER_102_1857
*728 FILLER_102_1869
*729 FILLER_102_1875
*730 FILLER_102_1877
*731 FILLER_102_1889
*732 FILLER_102_189
*733 FILLER_102_1901
*734 FILLER_102_1913
*735 FILLER_102_1925
*736 FILLER_102_195
*737 FILLER_102_197
*738 FILLER_102_209
*739 FILLER_102_221
*740 FILLER_102_233
*741 FILLER_102_245
*742 FILLER_102_251
*743 FILLER_102_253
*744 FILLER_102_265
*745 FILLER_102_27
*746 FILLER_102_277
*747 FILLER_102_289
*748 FILLER_102_29
*749 FILLER_102_3
*750 FILLER_102_301
*751 FILLER_102_307
*752 FILLER_102_309
*753 FILLER_102_321
*754 FILLER_102_333
*755 FILLER_102_345
*756 FILLER_102_357
*757 FILLER_102_363
*758 FILLER_102_365
*759 FILLER_102_377
*760 FILLER_102_389
*761 FILLER_102_401
*762 FILLER_102_41
*763 FILLER_102_413
*764 FILLER_102_419
*765 FILLER_102_421
*766 FILLER_102_433
*767 FILLER_102_445
*768 FILLER_102_457
*769 FILLER_102_469
*770 FILLER_102_475
*771 FILLER_102_477
*772 FILLER_102_489
*773 FILLER_102_501
*774 FILLER_102_513
*775 FILLER_102_525
*776 FILLER_102_53
*777 FILLER_102_531
*778 FILLER_102_533
*779 FILLER_102_545
*780 FILLER_102_557
*781 FILLER_102_569
*782 FILLER_102_581
*783 FILLER_102_587
*784 FILLER_102_589
*785 FILLER_102_601
*786 FILLER_102_613
*787 FILLER_102_625
*788 FILLER_102_637
*789 FILLER_102_643
*790 FILLER_102_645
*791 FILLER_102_65
*792 FILLER_102_657
*793 FILLER_102_669
*794 FILLER_102_681
*795 FILLER_102_693
*796 FILLER_102_699
*797 FILLER_102_701
*798 FILLER_102_713
*799 FILLER_102_725
*800 FILLER_102_737
*801 FILLER_102_749
*802 FILLER_102_755
*803 FILLER_102_757
*804 FILLER_102_769
*805 FILLER_102_77
*806 FILLER_102_781
*807 FILLER_102_793
*808 FILLER_102_805
*809 FILLER_102_811
*810 FILLER_102_813
*811 FILLER_102_825
*812 FILLER_102_83
*813 FILLER_102_837
*814 FILLER_102_849
*815 FILLER_102_85
*816 FILLER_102_861
*817 FILLER_102_867
*818 FILLER_102_869
*819 FILLER_102_881
*820 FILLER_102_893
*821 FILLER_102_905
*822 FILLER_102_917
*823 FILLER_102_923
*824 FILLER_102_925
*825 FILLER_102_937
*826 FILLER_102_949
*827 FILLER_102_961
*828 FILLER_102_97
*829 FILLER_102_973
*830 FILLER_102_979
*831 FILLER_102_981
*832 FILLER_102_993
*833 FILLER_103_1001
*834 FILLER_103_1007
*835 FILLER_103_1009
*836 FILLER_103_1021
*837 FILLER_103_1033
*838 FILLER_103_1045
*839 FILLER_103_105
*840 FILLER_103_1057
*841 FILLER_103_1063
*842 FILLER_103_1065
*843 FILLER_103_1077
*844 FILLER_103_1089
*845 FILLER_103_1101
*846 FILLER_103_111
*847 FILLER_103_1113
*848 FILLER_103_1119
*849 FILLER_103_1121
*850 FILLER_103_113
*851 FILLER_103_1133
*852 FILLER_103_1145
*853 FILLER_103_1157
*854 FILLER_103_1169
*855 FILLER_103_1175
*856 FILLER_103_1177
*857 FILLER_103_1189
*858 FILLER_103_1201
*859 FILLER_103_1213
*860 FILLER_103_1225
*861 FILLER_103_1231
*862 FILLER_103_1233
*863 FILLER_103_1245
*864 FILLER_103_125
*865 FILLER_103_1257
*866 FILLER_103_1269
*867 FILLER_103_1281
*868 FILLER_103_1287
*869 FILLER_103_1289
*870 FILLER_103_1301
*871 FILLER_103_1313
*872 FILLER_103_1325
*873 FILLER_103_1337
*874 FILLER_103_1343
*875 FILLER_103_1345
*876 FILLER_103_1357
*877 FILLER_103_1369
*878 FILLER_103_137
*879 FILLER_103_1381
*880 FILLER_103_1393
*881 FILLER_103_1399
*882 FILLER_103_1401
*883 FILLER_103_1413
*884 FILLER_103_1425
*885 FILLER_103_1437
*886 FILLER_103_1449
*887 FILLER_103_1455
*888 FILLER_103_1457
*889 FILLER_103_1469
*890 FILLER_103_1481
*891 FILLER_103_149
*892 FILLER_103_1493
*893 FILLER_103_15
*894 FILLER_103_1505
*895 FILLER_103_1511
*896 FILLER_103_1513
*897 FILLER_103_1525
*898 FILLER_103_1537
*899 FILLER_103_1549
*900 FILLER_103_1561
*901 FILLER_103_1567
*902 FILLER_103_1569
*903 FILLER_103_1581
*904 FILLER_103_1593
*905 FILLER_103_1605
*906 FILLER_103_161
*907 FILLER_103_1617
*908 FILLER_103_1623
*909 FILLER_103_1625
*910 FILLER_103_1637
*911 FILLER_103_1649
*912 FILLER_103_1661
*913 FILLER_103_167
*914 FILLER_103_1673
*915 FILLER_103_1679
*916 FILLER_103_1681
*917 FILLER_103_169
*918 FILLER_103_1693
*919 FILLER_103_1705
*920 FILLER_103_1717
*921 FILLER_103_1729
*922 FILLER_103_1735
*923 FILLER_103_1737
*924 FILLER_103_1749
*925 FILLER_103_1761
*926 FILLER_103_1773
*927 FILLER_103_1785
*928 FILLER_103_1791
*929 FILLER_103_1793
*930 FILLER_103_1805
*931 FILLER_103_181
*932 FILLER_103_1817
*933 FILLER_103_1829
*934 FILLER_103_1841
*935 FILLER_103_1847
*936 FILLER_103_1849
*937 FILLER_103_1861
*938 FILLER_103_1873
*939 FILLER_103_1885
*940 FILLER_103_1897
*941 FILLER_103_1903
*942 FILLER_103_1905
*943 FILLER_103_1917
*944 FILLER_103_193
*945 FILLER_103_205
*946 FILLER_103_217
*947 FILLER_103_223
*948 FILLER_103_225
*949 FILLER_103_237
*950 FILLER_103_249
*951 FILLER_103_261
*952 FILLER_103_27
*953 FILLER_103_273
*954 FILLER_103_279
*955 FILLER_103_281
*956 FILLER_103_293
*957 FILLER_103_3
*958 FILLER_103_305
*959 FILLER_103_317
*960 FILLER_103_329
*961 FILLER_103_335
*962 FILLER_103_337
*963 FILLER_103_349
*964 FILLER_103_361
*965 FILLER_103_373
*966 FILLER_103_385
*967 FILLER_103_39
*968 FILLER_103_391
*969 FILLER_103_393
*970 FILLER_103_405
*971 FILLER_103_417
*972 FILLER_103_429
*973 FILLER_103_441
*974 FILLER_103_447
*975 FILLER_103_449
*976 FILLER_103_461
*977 FILLER_103_473
*978 FILLER_103_485
*979 FILLER_103_497
*980 FILLER_103_503
*981 FILLER_103_505
*982 FILLER_103_51
*983 FILLER_103_517
*984 FILLER_103_529
*985 FILLER_103_541
*986 FILLER_103_55
*987 FILLER_103_553
*988 FILLER_103_559
*989 FILLER_103_561
*990 FILLER_103_57
*991 FILLER_103_573
*992 FILLER_103_585
*993 FILLER_103_597
*994 FILLER_103_609
*995 FILLER_103_615
*996 FILLER_103_617
*997 FILLER_103_629
*998 FILLER_103_641
*999 FILLER_103_653
*1000 FILLER_103_665
*1001 FILLER_103_671
*1002 FILLER_103_673
*1003 FILLER_103_685
*1004 FILLER_103_69
*1005 FILLER_103_697
*1006 FILLER_103_709
*1007 FILLER_103_721
*1008 FILLER_103_727
*1009 FILLER_103_729
*1010 FILLER_103_741
*1011 FILLER_103_753
*1012 FILLER_103_765
*1013 FILLER_103_777
*1014 FILLER_103_783
*1015 FILLER_103_785
*1016 FILLER_103_797
*1017 FILLER_103_809
*1018 FILLER_103_81
*1019 FILLER_103_821
*1020 FILLER_103_833
*1021 FILLER_103_839
*1022 FILLER_103_841
*1023 FILLER_103_853
*1024 FILLER_103_865
*1025 FILLER_103_877
*1026 FILLER_103_889
*1027 FILLER_103_895
*1028 FILLER_103_897
*1029 FILLER_103_909
*1030 FILLER_103_921
*1031 FILLER_103_93
*1032 FILLER_103_933
*1033 FILLER_103_945
*1034 FILLER_103_951
*1035 FILLER_103_953
*1036 FILLER_103_965
*1037 FILLER_103_977
*1038 FILLER_103_989
*1039 FILLER_104_1003
*1040 FILLER_104_1015
*1041 FILLER_104_1027
*1042 FILLER_104_1035
*1043 FILLER_104_1037
*1044 FILLER_104_1049
*1045 FILLER_104_1061
*1046 FILLER_104_1073
*1047 FILLER_104_1085
*1048 FILLER_104_109
*1049 FILLER_104_1091
*1050 FILLER_104_1093
*1051 FILLER_104_1105
*1052 FILLER_104_1117
*1053 FILLER_104_1129
*1054 FILLER_104_1141
*1055 FILLER_104_1147
*1056 FILLER_104_1149
*1057 FILLER_104_1161
*1058 FILLER_104_1173
*1059 FILLER_104_1185
*1060 FILLER_104_1197
*1061 FILLER_104_1203
*1062 FILLER_104_1205
*1063 FILLER_104_121
*1064 FILLER_104_1217
*1065 FILLER_104_1229
*1066 FILLER_104_1241
*1067 FILLER_104_1253
*1068 FILLER_104_1259
*1069 FILLER_104_1261
*1070 FILLER_104_1273
*1071 FILLER_104_1285
*1072 FILLER_104_1297
*1073 FILLER_104_1309
*1074 FILLER_104_1315
*1075 FILLER_104_1317
*1076 FILLER_104_1329
*1077 FILLER_104_133
*1078 FILLER_104_1341
*1079 FILLER_104_1353
*1080 FILLER_104_1365
*1081 FILLER_104_1371
*1082 FILLER_104_1373
*1083 FILLER_104_1385
*1084 FILLER_104_139
*1085 FILLER_104_1397
*1086 FILLER_104_1409
*1087 FILLER_104_141
*1088 FILLER_104_1421
*1089 FILLER_104_1427
*1090 FILLER_104_1429
*1091 FILLER_104_1441
*1092 FILLER_104_1453
*1093 FILLER_104_1465
*1094 FILLER_104_1477
*1095 FILLER_104_1483
*1096 FILLER_104_1485
*1097 FILLER_104_1497
*1098 FILLER_104_15
*1099 FILLER_104_1509
*1100 FILLER_104_1521
*1101 FILLER_104_153
*1102 FILLER_104_1533
*1103 FILLER_104_1539
*1104 FILLER_104_1541
*1105 FILLER_104_1553
*1106 FILLER_104_1565
*1107 FILLER_104_1577
*1108 FILLER_104_1589
*1109 FILLER_104_1595
*1110 FILLER_104_1597
*1111 FILLER_104_1609
*1112 FILLER_104_1621
*1113 FILLER_104_1633
*1114 FILLER_104_1645
*1115 FILLER_104_165
*1116 FILLER_104_1651
*1117 FILLER_104_1653
*1118 FILLER_104_1665
*1119 FILLER_104_1677
*1120 FILLER_104_1689
*1121 FILLER_104_1701
*1122 FILLER_104_1707
*1123 FILLER_104_1709
*1124 FILLER_104_1721
*1125 FILLER_104_1733
*1126 FILLER_104_1745
*1127 FILLER_104_1757
*1128 FILLER_104_1763
*1129 FILLER_104_1765
*1130 FILLER_104_177
*1131 FILLER_104_1777
*1132 FILLER_104_1789
*1133 FILLER_104_1801
*1134 FILLER_104_1813
*1135 FILLER_104_1819
*1136 FILLER_104_1821
*1137 FILLER_104_1833
*1138 FILLER_104_1845
*1139 FILLER_104_1857
*1140 FILLER_104_1869
*1141 FILLER_104_1875
*1142 FILLER_104_1877
*1143 FILLER_104_1889
*1144 FILLER_104_189
*1145 FILLER_104_1901
*1146 FILLER_104_1913
*1147 FILLER_104_1925
*1148 FILLER_104_195
*1149 FILLER_104_197
*1150 FILLER_104_209
*1151 FILLER_104_221
*1152 FILLER_104_233
*1153 FILLER_104_245
*1154 FILLER_104_251
*1155 FILLER_104_253
*1156 FILLER_104_265
*1157 FILLER_104_27
*1158 FILLER_104_277
*1159 FILLER_104_289
*1160 FILLER_104_29
*1161 FILLER_104_3
*1162 FILLER_104_301
*1163 FILLER_104_307
*1164 FILLER_104_309
*1165 FILLER_104_321
*1166 FILLER_104_333
*1167 FILLER_104_345
*1168 FILLER_104_357
*1169 FILLER_104_363
*1170 FILLER_104_365
*1171 FILLER_104_377
*1172 FILLER_104_389
*1173 FILLER_104_401
*1174 FILLER_104_41
*1175 FILLER_104_413
*1176 FILLER_104_419
*1177 FILLER_104_421
*1178 FILLER_104_433
*1179 FILLER_104_445
*1180 FILLER_104_457
*1181 FILLER_104_469
*1182 FILLER_104_475
*1183 FILLER_104_477
*1184 FILLER_104_489
*1185 FILLER_104_501
*1186 FILLER_104_513
*1187 FILLER_104_525
*1188 FILLER_104_53
*1189 FILLER_104_531
*1190 FILLER_104_533
*1191 FILLER_104_545
*1192 FILLER_104_557
*1193 FILLER_104_569
*1194 FILLER_104_581
*1195 FILLER_104_587
*1196 FILLER_104_589
*1197 FILLER_104_601
*1198 FILLER_104_613
*1199 FILLER_104_625
*1200 FILLER_104_637
*1201 FILLER_104_643
*1202 FILLER_104_645
*1203 FILLER_104_65
*1204 FILLER_104_657
*1205 FILLER_104_669
*1206 FILLER_104_681
*1207 FILLER_104_693
*1208 FILLER_104_699
*1209 FILLER_104_701
*1210 FILLER_104_713
*1211 FILLER_104_725
*1212 FILLER_104_737
*1213 FILLER_104_749
*1214 FILLER_104_755
*1215 FILLER_104_757
*1216 FILLER_104_769
*1217 FILLER_104_77
*1218 FILLER_104_781
*1219 FILLER_104_793
*1220 FILLER_104_805
*1221 FILLER_104_811
*1222 FILLER_104_813
*1223 FILLER_104_825
*1224 FILLER_104_83
*1225 FILLER_104_837
*1226 FILLER_104_849
*1227 FILLER_104_85
*1228 FILLER_104_861
*1229 FILLER_104_867
*1230 FILLER_104_869
*1231 FILLER_104_881
*1232 FILLER_104_893
*1233 FILLER_104_905
*1234 FILLER_104_917
*1235 FILLER_104_923
*1236 FILLER_104_925
*1237 FILLER_104_937
*1238 FILLER_104_949
*1239 FILLER_104_961
*1240 FILLER_104_97
*1241 FILLER_104_973
*1242 FILLER_104_979
*1243 FILLER_104_985
*1244 FILLER_104_991
*1245 FILLER_105_1001
*1246 FILLER_105_1007
*1247 FILLER_105_1009
*1248 FILLER_105_1021
*1249 FILLER_105_1033
*1250 FILLER_105_1045
*1251 FILLER_105_105
*1252 FILLER_105_1057
*1253 FILLER_105_1063
*1254 FILLER_105_1065
*1255 FILLER_105_1077
*1256 FILLER_105_1089
*1257 FILLER_105_1101
*1258 FILLER_105_111
*1259 FILLER_105_1113
*1260 FILLER_105_1119
*1261 FILLER_105_1121
*1262 FILLER_105_113
*1263 FILLER_105_1133
*1264 FILLER_105_1145
*1265 FILLER_105_1157
*1266 FILLER_105_1169
*1267 FILLER_105_1175
*1268 FILLER_105_1177
*1269 FILLER_105_1189
*1270 FILLER_105_1201
*1271 FILLER_105_1213
*1272 FILLER_105_1225
*1273 FILLER_105_1231
*1274 FILLER_105_1233
*1275 FILLER_105_1245
*1276 FILLER_105_125
*1277 FILLER_105_1257
*1278 FILLER_105_1269
*1279 FILLER_105_1281
*1280 FILLER_105_1287
*1281 FILLER_105_1289
*1282 FILLER_105_1301
*1283 FILLER_105_1313
*1284 FILLER_105_1325
*1285 FILLER_105_1337
*1286 FILLER_105_1343
*1287 FILLER_105_1345
*1288 FILLER_105_1357
*1289 FILLER_105_1369
*1290 FILLER_105_137
*1291 FILLER_105_1381
*1292 FILLER_105_1393
*1293 FILLER_105_1399
*1294 FILLER_105_1401
*1295 FILLER_105_1413
*1296 FILLER_105_1425
*1297 FILLER_105_1437
*1298 FILLER_105_1449
*1299 FILLER_105_1455
*1300 FILLER_105_1457
*1301 FILLER_105_1469
*1302 FILLER_105_1481
*1303 FILLER_105_149
*1304 FILLER_105_1493
*1305 FILLER_105_15
*1306 FILLER_105_1505
*1307 FILLER_105_1511
*1308 FILLER_105_1513
*1309 FILLER_105_1525
*1310 FILLER_105_1537
*1311 FILLER_105_1549
*1312 FILLER_105_1561
*1313 FILLER_105_1567
*1314 FILLER_105_1569
*1315 FILLER_105_1581
*1316 FILLER_105_1593
*1317 FILLER_105_1605
*1318 FILLER_105_161
*1319 FILLER_105_1617
*1320 FILLER_105_1623
*1321 FILLER_105_1625
*1322 FILLER_105_1637
*1323 FILLER_105_1649
*1324 FILLER_105_1661
*1325 FILLER_105_167
*1326 FILLER_105_1673
*1327 FILLER_105_1679
*1328 FILLER_105_1681
*1329 FILLER_105_169
*1330 FILLER_105_1693
*1331 FILLER_105_1705
*1332 FILLER_105_1717
*1333 FILLER_105_1729
*1334 FILLER_105_1735
*1335 FILLER_105_1737
*1336 FILLER_105_1749
*1337 FILLER_105_1761
*1338 FILLER_105_1773
*1339 FILLER_105_1785
*1340 FILLER_105_1791
*1341 FILLER_105_1793
*1342 FILLER_105_1805
*1343 FILLER_105_181
*1344 FILLER_105_1817
*1345 FILLER_105_1829
*1346 FILLER_105_1841
*1347 FILLER_105_1847
*1348 FILLER_105_1849
*1349 FILLER_105_1861
*1350 FILLER_105_1873
*1351 FILLER_105_1885
*1352 FILLER_105_1897
*1353 FILLER_105_1903
*1354 FILLER_105_1905
*1355 FILLER_105_1917
*1356 FILLER_105_193
*1357 FILLER_105_205
*1358 FILLER_105_217
*1359 FILLER_105_223
*1360 FILLER_105_225
*1361 FILLER_105_237
*1362 FILLER_105_249
*1363 FILLER_105_261
*1364 FILLER_105_27
*1365 FILLER_105_273
*1366 FILLER_105_279
*1367 FILLER_105_281
*1368 FILLER_105_293
*1369 FILLER_105_3
*1370 FILLER_105_305
*1371 FILLER_105_317
*1372 FILLER_105_329
*1373 FILLER_105_335
*1374 FILLER_105_337
*1375 FILLER_105_349
*1376 FILLER_105_361
*1377 FILLER_105_373
*1378 FILLER_105_385
*1379 FILLER_105_39
*1380 FILLER_105_391
*1381 FILLER_105_393
*1382 FILLER_105_405
*1383 FILLER_105_417
*1384 FILLER_105_429
*1385 FILLER_105_441
*1386 FILLER_105_447
*1387 FILLER_105_449
*1388 FILLER_105_461
*1389 FILLER_105_473
*1390 FILLER_105_485
*1391 FILLER_105_497
*1392 FILLER_105_503
*1393 FILLER_105_505
*1394 FILLER_105_51
*1395 FILLER_105_517
*1396 FILLER_105_529
*1397 FILLER_105_541
*1398 FILLER_105_55
*1399 FILLER_105_553
*1400 FILLER_105_559
*1401 FILLER_105_561
*1402 FILLER_105_57
*1403 FILLER_105_573
*1404 FILLER_105_585
*1405 FILLER_105_597
*1406 FILLER_105_609
*1407 FILLER_105_615
*1408 FILLER_105_617
*1409 FILLER_105_629
*1410 FILLER_105_641
*1411 FILLER_105_653
*1412 FILLER_105_665
*1413 FILLER_105_671
*1414 FILLER_105_673
*1415 FILLER_105_685
*1416 FILLER_105_69
*1417 FILLER_105_697
*1418 FILLER_105_709
*1419 FILLER_105_721
*1420 FILLER_105_727
*1421 FILLER_105_729
*1422 FILLER_105_741
*1423 FILLER_105_753
*1424 FILLER_105_765
*1425 FILLER_105_777
*1426 FILLER_105_783
*1427 FILLER_105_785
*1428 FILLER_105_797
*1429 FILLER_105_809
*1430 FILLER_105_81
*1431 FILLER_105_821
*1432 FILLER_105_833
*1433 FILLER_105_839
*1434 FILLER_105_841
*1435 FILLER_105_853
*1436 FILLER_105_865
*1437 FILLER_105_877
*1438 FILLER_105_889
*1439 FILLER_105_895
*1440 FILLER_105_897
*1441 FILLER_105_909
*1442 FILLER_105_921
*1443 FILLER_105_93
*1444 FILLER_105_933
*1445 FILLER_105_945
*1446 FILLER_105_951
*1447 FILLER_105_953
*1448 FILLER_105_965
*1449 FILLER_105_977
*1450 FILLER_105_989
*1451 FILLER_106_1005
*1452 FILLER_106_1017
*1453 FILLER_106_1029
*1454 FILLER_106_1035
*1455 FILLER_106_1037
*1456 FILLER_106_1049
*1457 FILLER_106_1061
*1458 FILLER_106_1073
*1459 FILLER_106_1085