*SPEF "ieee 1481-1999"
*DESIGN "ExperiarCore"
*DATE "11:11:11 Fri 11 11, 1111"
*VENDOR "OpenRCX"
*PROGRAM "Parallel Extraction"
*VERSION "1.0"
*DESIGN_FLOW "NAME_SCOPE LOCAL" "PIN_CAP NONE"
*DIVIDER /
*DELIMITER :
*BUS_DELIMITER []
*T_UNIT 1 NS
*C_UNIT 1 PF
*R_UNIT 1 OHM
*L_UNIT 1 HENRY

*NAME_MAP
*1 addr0[0]
*2 addr0[1]
*3 addr0[2]
*4 addr0[3]
*5 addr0[4]
*6 addr0[5]
*7 addr0[6]
*8 addr0[7]
*9 net233
*10 addr1[0]
*11 addr1[1]
*12 addr1[2]
*13 addr1[3]
*14 addr1[4]
*15 addr1[5]
*16 addr1[6]
*17 addr1[7]
*18 net232
*19 clk0
*20 clk1
*21 coreIndex[0]
*22 coreIndex[1]
*23 coreIndex[2]
*24 coreIndex[3]
*25 coreIndex[4]
*26 coreIndex[5]
*27 coreIndex[6]
*28 coreIndex[7]
*29 core_wb_ack_i
*30 net234
*31 net244
*32 net245
*33 net246
*34 net247
*35 net248
*36 net249
*37 net250
*38 net251
*39 net252
*40 net253
*41 net235
*42 net254
*43 net255
*44 net256
*45 net257
*46 net258
*47 net259
*48 net260
*49 net261
*50 net236
*51 net237
*52 net238
*53 net239
*54 net240
*55 net241
*56 net242
*57 net243
*58 core_wb_cyc_o
*59 core_wb_data_i[0]
*60 core_wb_data_i[10]
*61 core_wb_data_i[11]
*62 core_wb_data_i[12]
*63 core_wb_data_i[13]
*64 core_wb_data_i[14]
*65 core_wb_data_i[15]
*66 core_wb_data_i[16]
*67 core_wb_data_i[17]
*68 core_wb_data_i[18]
*69 core_wb_data_i[19]
*70 core_wb_data_i[1]
*71 core_wb_data_i[20]
*72 core_wb_data_i[21]
*73 core_wb_data_i[22]
*74 core_wb_data_i[23]
*75 core_wb_data_i[24]
*76 core_wb_data_i[25]
*77 core_wb_data_i[26]
*78 core_wb_data_i[27]
*79 core_wb_data_i[28]
*80 core_wb_data_i[29]
*81 core_wb_data_i[2]
*82 core_wb_data_i[30]
*83 core_wb_data_i[31]
*84 core_wb_data_i[3]
*85 core_wb_data_i[4]
*86 core_wb_data_i[5]
*87 core_wb_data_i[6]
*88 core_wb_data_i[7]
*89 core_wb_data_i[8]
*90 core_wb_data_i[9]
*91 net262
*92 net272
*93 net273
*94 net274
*95 net275
*96 net276
*97 net277
*98 net278
*99 net279
*100 net280
*101 net281
*102 net263
*103 net282
*104 net283
*105 net284
*106 net285
*107 net286
*108 net287
*109 net288
*110 net289
*111 net290
*112 net291
*113 net264
*114 net292
*115 net293
*116 net265
*117 net266
*118 net267
*119 net268
*120 net269
*121 net270
*122 net271
*123 core_wb_error_i
*124 net294
*125 net295
*126 net296
*127 net297
*128 core_wb_stall_i
*129 net298
*130 net299
*131 csb0[0]
*132 net350
*133 csb1[0]
*134 net351
*135 din0[0]
*136 din0[10]
*137 din0[11]
*138 din0[12]
*139 din0[13]
*140 din0[14]
*141 din0[15]
*142 din0[16]
*143 din0[17]
*144 din0[18]
*145 din0[19]
*146 din0[1]
*147 din0[20]
*148 din0[21]
*149 din0[22]
*150 din0[23]
*151 din0[24]
*152 din0[25]
*153 din0[26]
*154 din0[27]
*155 din0[28]
*156 din0[29]
*157 din0[2]
*158 din0[30]
*159 din0[31]
*160 din0[3]
*161 din0[4]
*162 din0[5]
*163 din0[6]
*164 din0[7]
*165 din0[8]
*166 din0[9]
*167 dout0[0]
*168 dout0[10]
*169 dout0[11]
*170 dout0[12]
*171 dout0[13]
*172 dout0[14]
*173 dout0[15]
*174 dout0[16]
*175 dout0[17]
*176 dout0[18]
*177 dout0[19]
*178 dout0[1]
*179 dout0[20]
*180 dout0[21]
*181 dout0[22]
*182 dout0[23]
*183 dout0[24]
*184 dout0[25]
*185 dout0[26]
*186 dout0[27]
*187 dout0[28]
*188 dout0[29]
*189 dout0[2]
*190 dout0[30]
*191 dout0[31]
*192 dout0[32]
*193 dout0[33]
*194 dout0[34]
*195 dout0[35]
*196 dout0[36]
*197 dout0[37]
*198 dout0[38]
*199 dout0[39]
*200 dout0[3]
*201 dout0[40]
*202 dout0[41]
*203 dout0[42]
*204 dout0[43]
*205 dout0[44]
*206 dout0[45]
*207 dout0[46]
*208 dout0[47]
*209 dout0[48]
*210 dout0[49]
*211 dout0[4]
*212 dout0[50]
*213 dout0[51]
*214 dout0[52]
*215 dout0[53]
*216 dout0[54]
*217 dout0[55]
*218 dout0[56]
*219 dout0[57]
*220 dout0[58]
*221 dout0[59]
*222 dout0[5]
*223 dout0[60]
*224 dout0[61]
*225 dout0[62]
*226 dout0[63]
*227 dout0[6]
*228 dout0[7]
*229 dout0[8]
*230 dout0[9]
*231 dout1[0]
*232 dout1[10]
*233 dout1[11]
*234 dout1[12]
*235 dout1[13]
*236 dout1[14]
*237 dout1[15]
*238 dout1[16]
*239 dout1[17]
*240 dout1[18]
*241 dout1[19]
*242 dout1[1]
*243 dout1[20]
*244 dout1[21]
*245 dout1[22]
*246 dout1[23]
*247 dout1[24]
*248 dout1[25]
*249 dout1[26]
*250 dout1[27]
*251 dout1[28]
*252 dout1[29]
*253 dout1[2]
*254 dout1[30]
*255 dout1[31]
*256 dout1[32]
*257 dout1[33]
*258 dout1[34]
*259 dout1[35]
*260 dout1[36]
*261 dout1[37]
*262 dout1[38]
*263 dout1[39]
*264 dout1[3]
*265 dout1[40]
*266 dout1[41]
*267 dout1[42]
*268 dout1[43]
*269 dout1[44]
*270 dout1[45]
*271 dout1[46]
*272 dout1[47]
*273 dout1[48]
*274 dout1[49]
*275 dout1[4]
*276 dout1[50]
*277 dout1[51]
*278 dout1[52]
*279 dout1[53]
*280 dout1[54]
*281 dout1[55]
*282 dout1[56]
*283 dout1[57]
*284 dout1[58]
*285 dout1[59]
*286 dout1[5]
*287 dout1[60]
*288 dout1[61]
*289 dout1[62]
*290 dout1[63]
*291 dout1[6]
*292 dout1[7]
*293 dout1[8]
*294 dout1[9]
*295 jtag_tck
*296 jtag_tdi
*297 jtag_tdo
*298 jtag_tms
*299 localMemory_wb_ack_o
*300 localMemory_wb_adr_i[0]
*301 localMemory_wb_adr_i[10]
*302 localMemory_wb_adr_i[11]
*303 localMemory_wb_adr_i[12]
*304 localMemory_wb_adr_i[13]
*305 localMemory_wb_adr_i[14]
*306 localMemory_wb_adr_i[15]
*307 localMemory_wb_adr_i[16]
*308 localMemory_wb_adr_i[17]
*309 localMemory_wb_adr_i[18]
*310 localMemory_wb_adr_i[19]
*311 localMemory_wb_adr_i[1]
*312 localMemory_wb_adr_i[20]
*313 localMemory_wb_adr_i[21]
*314 localMemory_wb_adr_i[22]
*315 localMemory_wb_adr_i[23]
*316 localMemory_wb_adr_i[2]
*317 localMemory_wb_adr_i[3]
*318 localMemory_wb_adr_i[4]
*319 localMemory_wb_adr_i[5]
*320 localMemory_wb_adr_i[6]
*321 localMemory_wb_adr_i[7]
*322 localMemory_wb_adr_i[8]
*323 localMemory_wb_adr_i[9]
*324 localMemory_wb_cyc_i
*325 localMemory_wb_data_i[0]
*326 localMemory_wb_data_i[10]
*327 localMemory_wb_data_i[11]
*328 localMemory_wb_data_i[12]
*329 localMemory_wb_data_i[13]
*330 localMemory_wb_data_i[14]
*331 localMemory_wb_data_i[15]
*332 localMemory_wb_data_i[16]
*333 localMemory_wb_data_i[17]
*334 localMemory_wb_data_i[18]
*335 localMemory_wb_data_i[19]
*336 localMemory_wb_data_i[1]
*337 localMemory_wb_data_i[20]
*338 localMemory_wb_data_i[21]
*339 localMemory_wb_data_i[22]
*340 localMemory_wb_data_i[23]
*341 localMemory_wb_data_i[24]
*342 localMemory_wb_data_i[25]
*343 localMemory_wb_data_i[26]
*344 localMemory_wb_data_i[27]
*345 localMemory_wb_data_i[28]
*346 localMemory_wb_data_i[29]
*347 localMemory_wb_data_i[2]
*348 localMemory_wb_data_i[30]
*349 localMemory_wb_data_i[31]
*350 localMemory_wb_data_i[3]
*351 localMemory_wb_data_i[4]
*352 localMemory_wb_data_i[5]
*353 localMemory_wb_data_i[6]
*354 localMemory_wb_data_i[7]
*355 localMemory_wb_data_i[8]
*356 localMemory_wb_data_i[9]
*357 localMemory_wb_data_o[0]
*358 localMemory_wb_data_o[10]
*359 localMemory_wb_data_o[11]
*360 localMemory_wb_data_o[12]
*361 localMemory_wb_data_o[13]
*362 localMemory_wb_data_o[14]
*363 localMemory_wb_data_o[15]
*364 localMemory_wb_data_o[16]
*365 localMemory_wb_data_o[17]
*366 localMemory_wb_data_o[18]
*367 localMemory_wb_data_o[19]
*368 localMemory_wb_data_o[1]
*369 localMemory_wb_data_o[20]
*370 localMemory_wb_data_o[21]
*371 localMemory_wb_data_o[22]
*372 localMemory_wb_data_o[23]
*373 localMemory_wb_data_o[24]
*374 localMemory_wb_data_o[25]
*375 localMemory_wb_data_o[26]
*376 localMemory_wb_data_o[27]
*377 localMemory_wb_data_o[28]
*378 localMemory_wb_data_o[29]
*379 localMemory_wb_data_o[2]
*380 localMemory_wb_data_o[30]
*381 localMemory_wb_data_o[31]
*382 localMemory_wb_data_o[3]
*383 localMemory_wb_data_o[4]
*384 localMemory_wb_data_o[5]
*385 localMemory_wb_data_o[6]
*386 localMemory_wb_data_o[7]
*387 localMemory_wb_data_o[8]
*388 localMemory_wb_data_o[9]
*389 net300
*390 localMemory_wb_sel_i[0]
*391 localMemory_wb_sel_i[1]
*392 localMemory_wb_sel_i[2]
*393 localMemory_wb_sel_i[3]
*394 localMemory_wb_stall_o
*395 localMemory_wb_stb_i
*396 localMemory_wb_we_i
*397 manufacturerID[0]
*398 manufacturerID[10]
*399 manufacturerID[1]
*400 manufacturerID[2]
*401 manufacturerID[3]
*402 manufacturerID[4]
*403 manufacturerID[5]
*404 manufacturerID[6]
*405 manufacturerID[7]
*406 manufacturerID[8]
*407 manufacturerID[9]
*408 partID[0]
*409 partID[10]
*410 partID[11]
*411 partID[12]
*412 partID[13]
*413 partID[14]
*414 partID[15]
*415 partID[1]
*416 partID[2]
*417 partID[3]
*418 partID[4]
*419 partID[5]
*420 partID[6]
*421 partID[7]
*422 partID[8]
*423 partID[9]
*424 net301
*425 net302
*426 net303
*427 net304
*428 net305
*429 net306
*430 net307
*431 net308
*432 probe_jtagInstruction[0]
*433 probe_jtagInstruction[1]
*434 probe_jtagInstruction[2]
*435 probe_jtagInstruction[3]
*436 probe_jtagInstruction[4]
*437 net309
*438 net310
*439 net311
*440 net312
*441 net313
*442 net314
*443 net315
*444 net316
*445 net326
*446 net327
*447 net328
*448 net329
*449 net330
*450 net331
*451 net332
*452 net333
*453 net334
*454 net335
*455 net317
*456 net336
*457 net337
*458 net338
*459 net339
*460 net340
*461 net341
*462 net342
*463 net343
*464 net344
*465 net345
*466 net318
*467 net346
*468 net347
*469 net319
*470 net320
*471 net321
*472 net322
*473 net323
*474 net324
*475 net325
*476 net352
*477 net348
*478 net349
*480 versionID[0]
*481 versionID[1]
*482 versionID[2]
*483 versionID[3]
*485 wb_clk_i
*486 wb_rst_i
*487 web0
*488 wmask0[0]
*489 wmask0[1]
*490 wmask0[2]
*491 wmask0[3]
*492 _0000_
*493 _0001_
*494 _0002_
*495 _0003_
*496 _0004_
*497 _0005_
*498 _0006_
*499 _0007_
*500 _0008_
*501 _0009_
*502 _0010_
*503 _0011_
*504 _0012_
*505 _0013_
*506 _0014_
*507 _0015_
*508 _0016_
*509 _0017_
*510 _0018_
*511 _0019_
*512 _0020_
*513 _0021_
*514 _0022_
*515 _0023_
*516 _0024_
*517 _0025_
*518 _0026_
*519 _0027_
*520 _0028_
*521 _0029_
*522 _0030_
*523 _0031_
*524 _0032_
*525 _0033_
*526 _0034_
*527 _0035_
*528 _0036_
*529 _0037_
*530 _0038_
*531 _0039_
*532 _0040_
*533 _0041_
*534 _0042_
*535 _0043_
*536 _0044_
*537 _0045_
*538 _0046_
*539 _0047_
*540 _0048_
*541 _0049_
*542 _0050_
*543 _0051_
*544 _0052_
*545 _0053_
*546 _0054_
*547 _0055_
*548 _0056_
*549 _0057_
*550 _0058_
*551 _0059_
*552 _0060_
*553 _0061_
*554 _0062_
*555 _0063_
*556 _0064_
*557 _0065_
*558 _0066_
*559 _0067_
*560 _0068_
*561 _0069_
*562 _0070_
*563 _0071_
*564 _0072_
*565 _0073_
*566 _0074_
*567 _0075_
*568 _0076_
*569 _0077_
*570 _0078_
*571 _0079_
*572 _0080_
*573 _0081_
*574 _0082_
*575 _0083_
*576 _0084_
*577 _0085_
*578 _0086_
*579 _0087_
*580 _0088_
*581 _0089_
*582 _0090_
*583 _0091_
*584 _0092_
*585 _0093_
*586 _0094_
*587 _0095_
*588 _0096_
*589 _0097_
*590 _0098_
*591 _0099_
*592 _0100_
*593 _0101_
*594 _0102_
*595 _0103_
*596 _0104_
*597 _0105_
*598 _0106_
*599 _0107_
*600 _0108_
*601 _0109_
*602 _0110_
*603 _0111_
*604 _0112_
*605 _0113_
*606 _0114_
*607 _0115_
*608 _0116_
*609 _0117_
*610 _0118_
*611 _0119_
*612 _0120_
*613 _0121_
*614 _0122_
*615 _0123_
*616 _0124_
*617 _0125_
*618 _0126_
*619 _0127_
*620 _0128_
*621 _0129_
*622 _0130_
*623 _0131_
*624 _0132_
*625 _0133_
*626 _0134_
*627 _0135_
*628 _0136_
*629 _0137_
*630 _0138_
*631 _0139_
*632 _0140_
*633 _0141_
*634 _0142_
*635 _0143_
*636 _0144_
*637 _0145_
*638 _0146_
*639 _0147_
*640 _0148_
*641 _0149_
*642 _0150_
*643 _0151_
*644 _0152_
*645 _0153_
*646 _0154_
*647 _0155_
*648 _0156_
*649 _0157_
*650 _0158_
*651 _0159_
*652 _0160_
*653 _0161_
*654 _0162_
*655 _0163_
*656 _0164_
*657 _0165_
*658 _0166_
*659 _0167_
*660 _0168_
*661 _0169_
*662 _0170_
*663 _0171_
*664 _0172_
*665 _0173_
*666 _0174_
*667 _0175_
*668 _0176_
*669 _0177_
*670 _0178_
*671 _0179_
*672 _0180_
*673 _0181_
*674 _0182_
*675 _0183_
*676 _0184_
*677 _0185_
*678 _0186_
*679 _0187_
*680 _0188_
*681 _0189_
*682 _0190_
*683 _0191_
*684 _0192_
*685 _0193_
*686 _0194_
*687 _0195_
*688 _0196_
*689 _0197_
*690 _0198_
*691 _0199_
*692 _0200_
*693 _0201_
*694 _0202_
*695 _0203_
*696 _0204_
*697 _0205_
*698 _0206_
*699 _0207_
*700 _0208_
*701 _0209_
*702 _0210_
*703 _0211_
*704 _0212_
*705 _0213_
*706 _0214_
*707 _0215_
*708 _0216_
*709 _0217_
*710 _0218_
*711 _0219_
*712 _0220_
*713 _0221_
*714 _0222_
*715 _0223_
*716 _0224_
*717 _0225_
*718 _0226_
*719 _0227_
*720 _0228_
*721 _0229_
*722 _0230_
*723 _0231_
*724 _0232_
*725 _0233_
*726 _0234_
*727 _0235_
*728 _0236_
*729 _0237_
*730 _0238_
*731 _0239_
*732 _0240_
*733 _0241_
*734 _0242_
*735 _0243_
*736 _0244_
*737 _0245_
*738 _0246_
*739 _0247_
*740 _0248_
*741 _0249_
*742 _0250_
*743 _0251_
*744 _0252_
*745 _0253_
*746 _0254_
*747 _0255_
*748 _0256_
*749 _0257_
*750 _0258_
*751 _0259_
*752 _0260_
*753 _0261_
*754 _0262_
*755 _0263_
*756 _0264_
*757 _0265_
*758 _0266_
*759 _0267_
*760 _0268_
*761 _0269_
*762 _0270_
*763 _0271_
*764 _0272_
*765 _0273_
*766 _0274_
*767 _0275_
*768 _0276_
*769 _0277_
*770 _0278_
*771 _0279_
*772 _0280_
*773 _0281_
*774 _0282_
*775 _0283_
*776 _0284_
*777 _0285_
*778 _0286_
*779 _0287_
*780 _0288_
*781 _0289_
*782 _0290_
*783 _0291_
*784 _0292_
*785 _0293_
*786 _0294_
*787 _0295_
*788 _0296_
*789 _0297_
*790 _0298_
*791 _0299_
*792 _0300_
*793 _0301_
*794 _0302_
*795 _0303_
*796 _0304_
*797 _0305_
*798 _0306_
*799 _0307_
*800 _0308_
*801 _0309_
*802 _0310_
*803 _0311_
*804 _0312_
*805 _0313_
*806 _0314_
*807 _0315_
*808 _0316_
*809 _0317_
*810 _0318_
*811 _0319_
*812 _0320_
*813 _0321_
*814 _0322_
*815 _0323_
*816 _0324_
*817 _0325_
*818 _0326_
*819 _0327_
*820 _0328_
*821 _0329_
*822 _0330_
*823 _0331_
*824 _0332_
*825 _0333_
*826 _0334_
*827 _0335_
*828 _0336_
*829 _0337_
*830 _0338_
*831 _0339_
*832 _0340_
*833 _0341_
*834 _0342_
*835 _0343_
*836 _0344_
*837 _0345_
*838 _0346_
*839 _0347_
*840 _0348_
*841 _0349_
*842 _0350_
*843 _0351_
*844 _0352_
*845 _0353_
*846 _0354_
*847 _0355_
*848 _0356_
*849 _0357_
*850 _0358_
*851 _0359_
*852 _0360_
*853 _0361_
*854 _0362_
*855 _0363_
*856 _0364_
*857 _0365_
*858 _0366_
*859 _0367_
*860 _0368_
*861 _0369_
*862 _0370_
*863 _0371_
*864 _0372_
*865 _0373_
*866 _0374_
*867 _0375_
*868 _0376_
*869 _0377_
*870 _0378_
*871 _0379_
*872 _0380_
*873 _0381_
*874 _0382_
*875 _0383_
*876 _0384_
*877 _0385_
*878 _0386_
*879 _0387_
*880 _0388_
*881 _0389_
*882 _0390_
*883 _0391_
*884 _0392_
*885 _0393_
*886 _0394_
*887 _0395_
*888 _0396_
*889 _0397_
*890 _0398_
*891 _0399_
*892 _0400_
*893 _0401_
*894 _0402_
*895 _0403_
*896 _0404_
*897 _0405_
*898 _0406_
*899 _0407_
*900 _0408_
*901 _0409_
*902 _0410_
*903 _0411_
*904 _0412_
*905 _0413_
*906 _0414_
*907 _0415_
*908 _0416_
*909 _0417_
*910 _0418_
*911 _0419_
*912 _0420_
*913 _0421_
*914 _0422_
*915 _0423_
*916 _0424_
*917 _0425_
*918 _0426_
*919 _0427_
*920 _0428_
*921 _0429_
*922 _0430_
*923 _0431_
*924 _0432_
*925 _0433_
*926 _0434_
*927 _0435_
*928 _0436_
*929 _0437_
*930 _0438_
*931 _0439_
*932 _0440_
*933 _0441_
*934 _0442_
*935 _0443_
*936 _0444_
*937 _0445_
*938 _0446_
*939 _0447_
*940 _0448_
*941 _0449_
*942 _0450_
*943 _0451_
*944 _0452_
*945 _0453_
*946 _0454_
*947 _0455_
*948 _0456_
*949 _0457_
*950 _0458_
*951 _0459_
*952 _0460_
*953 _0461_
*954 _0462_
*955 _0463_
*956 _0464_
*957 _0465_
*958 _0466_
*959 _0467_
*960 _0468_
*961 _0469_
*962 _0470_
*963 _0471_
*964 _0472_
*965 _0473_
*966 _0474_
*967 _0475_
*968 _0476_
*969 _0477_
*970 _0478_
*971 _0479_
*972 _0480_
*973 _0481_
*974 _0482_
*975 _0483_
*976 _0484_
*977 _0485_
*978 _0486_
*979 _0487_
*980 _0488_
*981 _0489_
*982 _0490_
*983 _0491_
*984 _0492_
*985 _0493_
*986 _0494_
*987 _0495_
*988 _0496_
*989 _0497_
*990 _0498_
*991 _0499_
*992 _0500_
*993 _0501_
*994 _0502_
*995 _0503_
*996 _0504_
*997 _0505_
*998 _0506_
*999 _0507_
*1000 _0508_
*1001 _0509_
*1002 _0510_
*1003 _0511_
*1004 _0512_
*1005 _0513_
*1006 _0514_
*1007 _0515_
*1008 _0516_
*1009 _0517_
*1010 _0518_
*1011 _0519_
*1012 _0520_
*1013 _0521_
*1014 _0522_
*1015 _0523_
*1016 _0524_
*1017 _0525_
*1018 _0526_
*1019 _0527_
*1020 _0528_
*1021 _0529_
*1022 _0530_
*1023 _0531_
*1024 _0532_
*1025 _0533_
*1026 _0534_
*1027 _0535_
*1028 _0536_
*1029 _0537_
*1030 _0538_
*1031 _0539_
*1032 _0540_
*1033 _0541_
*1034 _0542_
*1035 _0543_
*1036 _0544_
*1037 _0545_
*1038 _0546_
*1039 _0547_
*1040 _0548_
*1041 _0549_
*1042 _0550_
*1043 _0551_
*1044 _0552_
*1045 _0553_
*1046 _0554_
*1047 _0555_
*1048 _0556_
*1049 _0557_
*1050 _0558_
*1051 _0559_
*1052 _0560_
*1053 _0561_
*1054 _0562_
*1055 _0563_
*1056 _0564_
*1057 _0565_
*1058 _0566_
*1059 _0567_
*1060 _0568_
*1061 _0569_
*1062 _0570_
*1063 _0571_
*1064 _0572_
*1065 _0573_
*1066 _0574_
*1067 _0575_
*1068 _0576_
*1069 _0577_
*1070 _0578_
*1071 _0579_
*1072 _0580_
*1073 _0581_
*1074 _0582_
*1075 clknet_0_wb_clk_i
*1076 clknet_1_0_0_wb_clk_i
*1077 clknet_1_0_1_wb_clk_i
*1078 clknet_1_1_0_wb_clk_i
*1079 clknet_1_1_1_wb_clk_i
*1080 clknet_2_0_0_wb_clk_i
*1081 clknet_2_1_0_wb_clk_i
*1082 clknet_2_2_0_wb_clk_i
*1083 clknet_2_3_0_wb_clk_i
*1084 clknet_3_0_0_wb_clk_i
*1085 clknet_3_1_0_wb_clk_i
*1086 clknet_3_2_0_wb_clk_i
*1087 clknet_3_3_0_wb_clk_i
*1088 clknet_3_4_0_wb_clk_i
*1089 clknet_3_5_0_wb_clk_i
*1090 clknet_3_6_0_wb_clk_i
*1091 clknet_3_7_0_wb_clk_i
*1092 jtag\.dataBSRRegister\.data\[0\]
*1093 jtag\.dataBSRRegister\.data\[10\]
*1094 jtag\.dataBSRRegister\.data\[11\]
*1095 jtag\.dataBSRRegister\.data\[12\]
*1096 jtag\.dataBSRRegister\.data\[13\]
*1097 jtag\.dataBSRRegister\.data\[14\]
*1098 jtag\.dataBSRRegister\.data\[15\]
*1099 jtag\.dataBSRRegister\.data\[16\]
*1100 jtag\.dataBSRRegister\.data\[17\]
*1101 jtag\.dataBSRRegister\.data\[18\]
*1102 jtag\.dataBSRRegister\.data\[19\]
*1103 jtag\.dataBSRRegister\.data\[1\]
*1104 jtag\.dataBSRRegister\.data\[20\]
*1105 jtag\.dataBSRRegister\.data\[21\]
*1106 jtag\.dataBSRRegister\.data\[22\]
*1107 jtag\.dataBSRRegister\.data\[23\]
*1108 jtag\.dataBSRRegister\.data\[24\]
*1109 jtag\.dataBSRRegister\.data\[25\]
*1110 jtag\.dataBSRRegister\.data\[26\]
*1111 jtag\.dataBSRRegister\.data\[27\]
*1112 jtag\.dataBSRRegister\.data\[28\]
*1113 jtag\.dataBSRRegister\.data\[29\]
*1114 jtag\.dataBSRRegister\.data\[2\]
*1115 jtag\.dataBSRRegister\.data\[30\]
*1116 jtag\.dataBSRRegister\.data\[31\]
*1117 jtag\.dataBSRRegister\.data\[3\]
*1118 jtag\.dataBSRRegister\.data\[4\]
*1119 jtag\.dataBSRRegister\.data\[5\]
*1120 jtag\.dataBSRRegister\.data\[6\]
*1121 jtag\.dataBSRRegister\.data\[7\]
*1122 jtag\.dataBSRRegister\.data\[8\]
*1123 jtag\.dataBSRRegister\.data\[9\]
*1124 jtag\.dataBypassRegister\.data
*1125 jtag\.dataIDRegister\.data\[0\]
*1126 jtag\.dataIDRegister\.data\[10\]
*1127 jtag\.dataIDRegister\.data\[11\]
*1128 jtag\.dataIDRegister\.data\[12\]
*1129 jtag\.dataIDRegister\.data\[13\]
*1130 jtag\.dataIDRegister\.data\[14\]
*1131 jtag\.dataIDRegister\.data\[15\]
*1132 jtag\.dataIDRegister\.data\[16\]
*1133 jtag\.dataIDRegister\.data\[17\]
*1134 jtag\.dataIDRegister\.data\[18\]
*1135 jtag\.dataIDRegister\.data\[19\]
*1136 jtag\.dataIDRegister\.data\[1\]
*1137 jtag\.dataIDRegister\.data\[20\]
*1138 jtag\.dataIDRegister\.data\[21\]
*1139 jtag\.dataIDRegister\.data\[22\]
*1140 jtag\.dataIDRegister\.data\[23\]
*1141 jtag\.dataIDRegister\.data\[24\]
*1142 jtag\.dataIDRegister\.data\[25\]
*1143 jtag\.dataIDRegister\.data\[26\]
*1144 jtag\.dataIDRegister\.data\[27\]
*1145 jtag\.dataIDRegister\.data\[28\]
*1146 jtag\.dataIDRegister\.data\[29\]
*1147 jtag\.dataIDRegister\.data\[2\]
*1148 jtag\.dataIDRegister\.data\[30\]
*1149 jtag\.dataIDRegister\.data\[31\]
*1150 jtag\.dataIDRegister\.data\[3\]
*1151 jtag\.dataIDRegister\.data\[4\]
*1152 jtag\.dataIDRegister\.data\[5\]
*1153 jtag\.dataIDRegister\.data\[6\]
*1154 jtag\.dataIDRegister\.data\[7\]
*1155 jtag\.dataIDRegister\.data\[8\]
*1156 jtag\.dataIDRegister\.data\[9\]
*1157 jtag\.instructionRegister\.data\[0\]
*1158 jtag\.instructionRegister\.data\[1\]
*1159 jtag\.instructionRegister\.data\[2\]
*1160 jtag\.instructionRegister\.data\[3\]
*1161 jtag\.instructionRegister\.data\[4\]
*1162 jtag\.state\[0\]
*1163 jtag\.state\[1\]
*1164 jtag\.state\[2\]
*1165 jtag\.state\[3\]
*1166 jtag\.tckRisingEdge
*1167 jtag\.tckState
*1168 net1
*1169 net10
*1170 net100
*1171 net101
*1172 net102
*1173 net103
*1174 net104
*1175 net105
*1176 net106
*1177 net107
*1178 net108
*1179 net109
*1180 net11
*1181 net110
*1182 net111
*1183 net112
*1184 net113
*1185 net114
*1186 net115
*1187 net116
*1188 net117
*1189 net118
*1190 net119
*1191 net12
*1192 net120
*1193 net121
*1194 net122
*1195 net123
*1196 net124
*1197 net125
*1198 net126
*1199 net127
*1200 net128
*1201 net129
*1202 net13
*1203 net130
*1204 net131
*1205 net132
*1206 net133
*1207 net134
*1208 net135
*1209 net136
*1210 net137
*1211 net138
*1212 net139
*1213 net14
*1214 net140
*1215 net141
*1216 net142
*1217 net143
*1218 net144
*1219 net145
*1220 net146
*1221 net147
*1222 net148
*1223 net149
*1224 net15
*1225 net150
*1226 net151
*1227 net152
*1228 net153
*1229 net154
*1230 net155
*1231 net156
*1232 net157
*1233 net158
*1234 net159
*1235 net16
*1236 net160
*1237 net161
*1238 net162
*1239 net163
*1240 net164
*1241 net165
*1242 net166
*1243 net167
*1244 net168
*1245 net169
*1246 net17
*1247 net170
*1248 net171
*1249 net172
*1250 net173
*1251 net174
*1252 net175
*1253 net176
*1254 net177
*1255 net178
*1256 net179
*1257 net18
*1258 net180
*1259 net181
*1260 net182
*1261 net183
*1262 net184
*1263 net185
*1264 net186
*1265 net187
*1266 net188
*1267 net189
*1268 net19
*1269 net190
*1270 net191
*1271 net192
*1272 net193
*1273 net194
*1274 net195
*1275 net196
*1276 net197
*1277 net198
*1278 net199
*1279 net2
*1280 net20
*1281 net200
*1282 net201
*1283 net202
*1284 net203
*1285 net204
*1286 net205
*1287 net206
*1288 net207
*1289 net208
*1290 net209
*1291 net21
*1292 net210
*1293 net211
*1294 net212
*1295 net213
*1296 net214
*1297 net215
*1298 net216
*1299 net217
*1300 net218
*1301 net219
*1302 net22
*1303 net220
*1304 net221
*1305 net222
*1306 net223
*1307 net224
*1308 net225
*1309 net226
*1310 net227
*1311 net228
*1312 net229
*1313 net23
*1314 net230
*1315 net231
*1316 net24
*1317 net25
*1318 net26
*1319 net27
*1320 net28
*1321 net29
*1322 net3
*1323 net30
*1324 net31
*1325 net32
*1326 net33
*1327 net34
*1328 net35
*1329 net36
*1330 net37
*1331 net38
*1332 net39
*1333 net4
*1334 net40
*1335 net41
*1336 net42
*1337 net43
*1338 net44
*1339 net45
*1340 net46
*1341 net47
*1342 net48
*1343 net49
*1344 net5
*1345 net50
*1346 net51
*1347 net52
*1348 net53
*1349 net54
*1350 net55
*1351 net56
*1352 net57
*1353 net58
*1354 net59
*1355 net6
*1356 net60
*1357 net61
*1358 net62
*1359 net63
*1360 net64
*1361 net65
*1362 net66
*1363 net67
*1364 net68
*1365 net69
*1366 net7
*1367 net70
*1368 net71
*1369 net72
*1370 net73
*1371 net74
*1372 net75
*1373 net76
*1374 net77
*1375 net78
*1376 net79
*1377 net8
*1378 net80
*1379 net81
*1380 net82
*1381 net83
*1382 net84
*1383 net85
*1384 net86
*1385 net87
*1386 net88
*1387 net89
*1388 net9
*1389 net90
*1390 net91
*1391 net92
*1392 net93
*1393 net94
*1394 net95
*1395 net96
*1396 net97
*1397 net98
*1398 net99
*1399 wbSRAMInterface\.currentAddress\[10\]
*1400 wbSRAMInterface\.currentAddress\[11\]
*1401 wbSRAMInterface\.currentAddress\[12\]
*1402 wbSRAMInterface\.currentAddress\[13\]
*1403 wbSRAMInterface\.currentAddress\[14\]
*1404 wbSRAMInterface\.currentAddress\[15\]
*1405 wbSRAMInterface\.currentAddress\[16\]
*1406 wbSRAMInterface\.currentAddress\[17\]
*1407 wbSRAMInterface\.currentAddress\[18\]
*1408 wbSRAMInterface\.currentAddress\[19\]
*1409 wbSRAMInterface\.currentAddress\[4\]
*1410 wbSRAMInterface\.currentAddress\[5\]
*1411 wbSRAMInterface\.currentAddress\[6\]
*1412 wbSRAMInterface\.currentAddress\[7\]
*1413 wbSRAMInterface\.currentAddress\[8\]
*1414 wbSRAMInterface\.currentAddress\[9\]
*1415 wbSRAMInterface\.currentByteSelect\[0\]
*1416 wbSRAMInterface\.currentByteSelect\[1\]
*1417 wbSRAMInterface\.currentByteSelect\[2\]
*1418 wbSRAMInterface\.currentByteSelect\[3\]
*1419 wbSRAMInterface\.state\[0\]
*1420 wbSRAMInterface\.state\[1\]
*1421 ANTENNA__0588__A
*1422 ANTENNA__0589__A
*1423 ANTENNA__0592__A
*1424 ANTENNA__0593__A
*1425 ANTENNA__0593__B
*1426 ANTENNA__0593__C_N
*1427 ANTENNA__0593__D_N
*1428 ANTENNA__0597__A
*1429 ANTENNA__0598__A
*1430 ANTENNA__0599__A
*1431 ANTENNA__0600__D_N
*1432 ANTENNA__0601__A
*1433 ANTENNA__0603__A
*1434 ANTENNA__0605__A
*1435 ANTENNA__0607__A
*1436 ANTENNA__0607__B
*1437 ANTENNA__0608__A
*1438 ANTENNA__0609__B
*1439 ANTENNA__0625__A
*1440 ANTENNA__0625__B
*1441 ANTENNA__0627__A
*1442 ANTENNA__0627__B
*1443 ANTENNA__0629__A
*1444 ANTENNA__0631__A
*1445 ANTENNA__0633__A
*1446 ANTENNA__0635__A
*1447 ANTENNA__0637__A
*1448 ANTENNA__0639__A
*1449 ANTENNA__0642__A
*1450 ANTENNA__0644__A
*1451 ANTENNA__0646__A
*1452 ANTENNA__0648__A
*1453 ANTENNA__0650__A
*1454 ANTENNA__0653__A
*1455 ANTENNA__0655__A
*1456 ANTENNA__0657__A
*1457 ANTENNA__0659__A
*1458 ANTENNA__0661__A
*1459 ANTENNA__0663__A
*1460 ANTENNA__0664__A
*1461 ANTENNA__0665__A
*1462 ANTENNA__0667__A
*1463 ANTENNA__0669__A
*1464 ANTENNA__0671__A
*1465 ANTENNA__0673__A
*1466 ANTENNA__0675__A
*1467 ANTENNA__0676__A
*1468 ANTENNA__0678__A
*1469 ANTENNA__0680__A
*1470 ANTENNA__0682__A
*1471 ANTENNA__0684__A
*1472 ANTENNA__0686__A
*1473 ANTENNA__0687__A
*1474 ANTENNA__0689__A
*1475 ANTENNA__0691__A
*1476 ANTENNA__0693__A
*1477 ANTENNA__0695__A
*1478 ANTENNA__0697__A
*1479 ANTENNA__0698__A
*1480 ANTENNA__0700__A
*1481 ANTENNA__0702__A
*1482 ANTENNA__0704__A
*1483 ANTENNA__0707__A
*1484 ANTENNA__0708__A
*1485 ANTENNA__0710__A
*1486 ANTENNA__0712__A
*1487 ANTENNA__0714__A
*1488 ANTENNA__0715__A
*1489 ANTENNA__0717__A
*1490 ANTENNA__0719__A
*1491 ANTENNA__0721__A
*1492 ANTENNA__0723__A
*1493 ANTENNA__0725__A
*1494 ANTENNA__0727__A
*1495 ANTENNA__0729__A
*1496 ANTENNA__0729__B
*1497 ANTENNA__0731__A
*1498 ANTENNA__0733__A
*1499 ANTENNA__0733__B
*1500 ANTENNA__0735__A
*1501 ANTENNA__0737__A
*1502 ANTENNA__0737__B
*1503 ANTENNA__0739__A
*1504 ANTENNA__0744__A
*1505 ANTENNA__0745__A
*1506 ANTENNA__0746__A
*1507 ANTENNA__0747__A
*1508 ANTENNA__0748__A
*1509 ANTENNA__0749__A
*1510 ANTENNA__0750__A
*1511 ANTENNA__0751__A
*1512 ANTENNA__0752__A
*1513 ANTENNA__0753__A
*1514 ANTENNA__0755__A
*1515 ANTENNA__0756__A
*1516 ANTENNA__0757__A
*1517 ANTENNA__0758__A
*1518 ANTENNA__0759__A
*1519 ANTENNA__0760__A
*1520 ANTENNA__0761__A
*1521 ANTENNA__0762__A
*1522 ANTENNA__0763__A
*1523 ANTENNA__0764__A
*1524 ANTENNA__0766__A
*1525 ANTENNA__0767__A
*1526 ANTENNA__0768__A
*1527 ANTENNA__0769__A
*1528 ANTENNA__0770__A
*1529 ANTENNA__0771__A
*1530 ANTENNA__0772__A
*1531 ANTENNA__0774__A
*1532 ANTENNA__0777__A
*1533 ANTENNA__0779__A
*1534 ANTENNA__0781__A
*1535 ANTENNA__0783__A
*1536 ANTENNA__0785__A
*1537 ANTENNA__0788__A
*1538 ANTENNA__0790__A
*1539 ANTENNA__0792__A
*1540 ANTENNA__0794__A
*1541 ANTENNA__0796__A
*1542 ANTENNA__0799__A
*1543 ANTENNA__0809__A
*1544 ANTENNA__0811__A
*1545 ANTENNA__0817__A
*1546 ANTENNA__0821__B
*1547 ANTENNA__0823__A
*1548 ANTENNA__0826__A
*1549 ANTENNA__0827__A
*1550 ANTENNA__0828__A
*1551 ANTENNA__0828__B
*1552 ANTENNA__0830__A
*1553 ANTENNA__0831__A1
*1554 ANTENNA__0833__A
*1555 ANTENNA__0837__A
*1556 ANTENNA__0838__B1
*1557 ANTENNA__0839__A
*1558 ANTENNA__0839__B
*1559 ANTENNA__0839__C
*1560 ANTENNA__0842__A
*1561 ANTENNA__0843__A
*1562 ANTENNA__0844__C
*1563 ANTENNA__0845__A
*1564 ANTENNA__0848__A
*1565 ANTENNA__0850__A
*1566 ANTENNA__0851__C
*1567 ANTENNA__0852__A
*1568 ANTENNA__0853__A
*1569 ANTENNA__0855__C
*1570 ANTENNA__0857__C
*1571 ANTENNA__0859__A
*1572 ANTENNA__0860__A
*1573 ANTENNA__0861__C
*1574 ANTENNA__0864__C
*1575 ANTENNA__0866__C
*1576 ANTENNA__0868__C
*1577 ANTENNA__0870__C
*1578 ANTENNA__0872__A
*1579 ANTENNA__0873__A
*1580 ANTENNA__0874__C
*1581 ANTENNA__0876__A
*1582 ANTENNA__0877__C
*1583 ANTENNA__0878__A
*1584 ANTENNA__0879__A2
*1585 ANTENNA__0880__A
*1586 ANTENNA__0881__B
*1587 ANTENNA__0881__C
*1588 ANTENNA__0882__A
*1589 ANTENNA__0883__C1
*1590 ANTENNA__0884__A
*1591 ANTENNA__0884__B
*1592 ANTENNA__0885__B
*1593 ANTENNA__0887__B1
*1594 ANTENNA__0888__B
*1595 ANTENNA__0888__C
*1596 ANTENNA__0891__C
*1597 ANTENNA__0892__A2
*1598 ANTENNA__0893__B
*1599 ANTENNA__0893__C
*1600 ANTENNA__0894__C1
*1601 ANTENNA__0895__A
*1602 ANTENNA__0898__A2
*1603 ANTENNA__0899__B
*1604 ANTENNA__0899__C
*1605 ANTENNA__0900__C1
*1606 ANTENNA__0902__A2
*1607 ANTENNA__0903__B
*1608 ANTENNA__0903__C
*1609 ANTENNA__0904__C1
*1610 ANTENNA__0906__A2
*1611 ANTENNA__0907__A
*1612 ANTENNA__0908__B
*1613 ANTENNA__0909__C1
*1614 ANTENNA__0910__A
*1615 ANTENNA__0912__A
*1616 ANTENNA__0914__A
*1617 ANTENNA__0916__A
*1618 ANTENNA__0918__B
*1619 ANTENNA__0919__B1
*1620 ANTENNA__0920__B
*1621 ANTENNA__0920__C
*1622 ANTENNA__0921__A
*1623 ANTENNA__0922__C1
*1624 ANTENNA__0927__A
*1625 ANTENNA__0929__A
*1626 ANTENNA__0939__A
*1627 ANTENNA__0942__A
*1628 ANTENNA__0944__A
*1629 ANTENNA__0946__A
*1630 ANTENNA__0948__A
*1631 ANTENNA__0950__B
*1632 ANTENNA__0954__B
*1633 ANTENNA__0954__C
*1634 ANTENNA__0958__B
*1635 ANTENNA__0958__C
*1636 ANTENNA__0962__B
*1637 ANTENNA__0962__C
*1638 ANTENNA__0964__C
*1639 ANTENNA__0966__A
*1640 ANTENNA__0969__B1
*1641 ANTENNA__0971__A
*1642 ANTENNA__0972__C_N
*1643 ANTENNA__0977__B1
*1644 ANTENNA__0978__C_N
*1645 ANTENNA__0980__A
*1646 ANTENNA__0983__B1
*1647 ANTENNA__0984__C_N
*1648 ANTENNA__0985__A2
*1649 ANTENNA__0989__B1
*1650 ANTENNA__0990__C_N
*1651 ANTENNA__0994__B1
*1652 ANTENNA__0995__C_N
*1653 ANTENNA__1000__B1
*1654 ANTENNA__1001__C_N
*1655 ANTENNA__1005__B1
*1656 ANTENNA__1006__C_N
*1657 ANTENNA__1008__B1
*1658 ANTENNA__1010__B1
*1659 ANTENNA__1011__C_N
*1660 ANTENNA__1013__B1
*1661 ANTENNA__1017__A1
*1662 ANTENNA__1017__B2
*1663 ANTENNA__1022__C1
*1664 ANTENNA__1028__A
*1665 ANTENNA__1029__A
*1666 ANTENNA__1030__A1
*1667 ANTENNA__1030__B1
*1668 ANTENNA__1043__A
*1669 ANTENNA__1056__A
*1670 ANTENNA__1107__B
*1671 ANTENNA__1109__B
*1672 ANTENNA__1112__A1
*1673 ANTENNA__1120__A0
*1674 ANTENNA__1126__A0
*1675 ANTENNA__1128__A
*1676 ANTENNA__1130__A1
*1677 ANTENNA__1130__A2
*1678 ANTENNA__1131__A1
*1679 ANTENNA__1132__A
*1680 ANTENNA__1139__A
*1681 ANTENNA__1142__A
*1682 ANTENNA__1144__A0
*1683 ANTENNA__1145__A
*1684 ANTENNA__1148__A
*1685 ANTENNA__1151__A
*1686 ANTENNA__1160__B
*1687 ANTENNA__1161__A
*1688 ANTENNA__1175__B1
*1689 ANTENNA__1181__B1
*1690 ANTENNA__1189__A
*1691 ANTENNA__1192__B
*1692 ANTENNA__1196__A_N
*1693 ANTENNA__1196__B
*1694 ANTENNA__1197__A
*1695 ANTENNA__1198__A0
*1696 ANTENNA__1198__A1
*1697 ANTENNA__1200__A0
*1698 ANTENNA__1200__A1
*1699 ANTENNA__1202__A0
*1700 ANTENNA__1202__A1
*1701 ANTENNA__1204__A0
*1702 ANTENNA__1204__A1
*1703 ANTENNA__1206__A
*1704 ANTENNA__1208__A2
*1705 ANTENNA__1208__C1
*1706 ANTENNA__1209__A2
*1707 ANTENNA__1209__B1