*SPEF "ieee 1481-1999"
*DESIGN "Flash"
*DATE "11:11:11 Fri 11 11, 1111"
*VENDOR "OpenRCX"
*PROGRAM "Parallel Extraction"
*VERSION "1.0"
*DESIGN_FLOW "NAME_SCOPE LOCAL" "PIN_CAP NONE"
*DIVIDER /
*DELIMITER :
*BUS_DELIMITER []
*T_UNIT 1 NS
*C_UNIT 1 PF
*R_UNIT 1 OHM
*L_UNIT 1 HENRY

*NAME_MAP
*1 clk
*2 core0Address[0]
*3 core0Address[10]
*4 core0Address[11]
*5 core0Address[12]
*6 core0Address[13]
*7 core0Address[14]
*8 core0Address[15]
*9 core0Address[16]
*10 core0Address[17]
*11 core0Address[18]
*12 core0Address[19]
*13 core0Address[1]
*14 core0Address[20]
*15 core0Address[21]
*16 core0Address[22]
*17 core0Address[23]
*18 core0Address[24]
*19 core0Address[25]
*20 core0Address[26]
*21 core0Address[27]
*22 core0Address[2]
*23 core0Address[3]
*24 core0Address[4]
*25 core0Address[5]
*26 core0Address[6]
*27 core0Address[7]
*28 core0Address[8]
*29 core0Address[9]
*30 net29
*31 core0ByteSelect[0]
*32 core0ByteSelect[1]
*33 core0ByteSelect[2]
*34 core0ByteSelect[3]
*35 net30
*36 net1
*37 net2
*38 net3
*39 net4
*40 net5
*41 net6
*42 net7
*43 net8
*44 net9
*45 net10
*46 net31
*47 net11
*48 net12
*49 net13
*50 net14
*51 net15
*52 net16
*53 net17
*54 net18
*55 net19
*56 net20
*57 net32
*58 net21
*59 net22
*60 net33
*61 net34
*62 net35
*63 net36
*64 net37
*65 net38
*66 net39
*67 core0DataWrite[0]
*68 core0DataWrite[10]
*69 core0DataWrite[11]
*70 core0DataWrite[12]
*71 core0DataWrite[13]
*72 core0DataWrite[14]
*73 core0DataWrite[15]
*74 core0DataWrite[16]
*75 core0DataWrite[17]
*76 core0DataWrite[18]
*77 core0DataWrite[19]
*78 core0DataWrite[1]
*79 core0DataWrite[20]
*80 core0DataWrite[21]
*81 core0DataWrite[22]
*82 core0DataWrite[23]
*83 core0DataWrite[24]
*84 core0DataWrite[25]
*85 core0DataWrite[26]
*86 core0DataWrite[27]
*87 core0DataWrite[28]
*88 core0DataWrite[29]
*89 core0DataWrite[2]
*90 core0DataWrite[30]
*91 core0DataWrite[31]
*92 core0DataWrite[3]
*93 core0DataWrite[4]
*94 core0DataWrite[5]
*95 core0DataWrite[6]
*96 core0DataWrite[7]
*97 core0DataWrite[8]
*98 core0DataWrite[9]
*99 core0ReadEnable
*100 core0WriteEnable
*101 net23
*102 flash_io0_read
*103 net24
*104 net25
*105 flash_io1_read
*106 net26
*107 net27
*108 net28
*109 rst
*110 FILLER_0_109
*111 FILLER_0_113
*112 FILLER_0_125
*113 FILLER_0_137
*114 FILLER_0_141
*115 FILLER_0_15
*116 FILLER_0_153
*117 FILLER_0_165
*118 FILLER_0_169
*119 FILLER_0_181
*120 FILLER_0_193
*121 FILLER_0_197
*122 FILLER_0_209
*123 FILLER_0_221
*124 FILLER_0_225
*125 FILLER_0_237
*126 FILLER_0_249
*127 FILLER_0_253
*128 FILLER_0_265
*129 FILLER_0_27
*130 FILLER_0_277
*131 FILLER_0_281
*132 FILLER_0_29
*133 FILLER_0_293
*134 FILLER_0_3
*135 FILLER_0_305
*136 FILLER_0_309
*137 FILLER_0_321
*138 FILLER_0_333
*139 FILLER_0_337
*140 FILLER_0_349
*141 FILLER_0_361
*142 FILLER_0_365
*143 FILLER_0_377
*144 FILLER_0_389
*145 FILLER_0_393
*146 FILLER_0_399
*147 FILLER_0_403
*148 FILLER_0_41
*149 FILLER_0_53
*150 FILLER_0_57
*151 FILLER_0_69
*152 FILLER_0_81
*153 FILLER_0_85
*154 FILLER_0_97
*155 FILLER_100_109
*156 FILLER_100_121
*157 FILLER_100_133
*158 FILLER_100_139
*159 FILLER_100_141
*160 FILLER_100_15
*161 FILLER_100_153
*162 FILLER_100_165
*163 FILLER_100_177
*164 FILLER_100_189
*165 FILLER_100_195
*166 FILLER_100_197
*167 FILLER_100_209
*168 FILLER_100_221
*169 FILLER_100_233
*170 FILLER_100_245
*171 FILLER_100_251
*172 FILLER_100_253
*173 FILLER_100_265
*174 FILLER_100_27
*175 FILLER_100_277
*176 FILLER_100_289
*177 FILLER_100_29
*178 FILLER_100_3
*179 FILLER_100_301
*180 FILLER_100_307
*181 FILLER_100_309
*182 FILLER_100_321
*183 FILLER_100_333
*184 FILLER_100_345
*185 FILLER_100_357
*186 FILLER_100_363
*187 FILLER_100_365
*188 FILLER_100_377
*189 FILLER_100_389
*190 FILLER_100_401
*191 FILLER_100_41
*192 FILLER_100_53
*193 FILLER_100_65
*194 FILLER_100_77
*195 FILLER_100_83
*196 FILLER_100_85
*197 FILLER_100_97
*198 FILLER_101_105
*199 FILLER_101_111
*200 FILLER_101_113
*201 FILLER_101_125
*202 FILLER_101_137
*203 FILLER_101_149
*204 FILLER_101_15
*205 FILLER_101_161
*206 FILLER_101_167
*207 FILLER_101_169
*208 FILLER_101_181
*209 FILLER_101_193
*210 FILLER_101_205
*211 FILLER_101_217
*212 FILLER_101_223
*213 FILLER_101_225
*214 FILLER_101_237
*215 FILLER_101_249
*216 FILLER_101_261
*217 FILLER_101_27
*218 FILLER_101_273
*219 FILLER_101_279
*220 FILLER_101_281
*221 FILLER_101_293
*222 FILLER_101_3
*223 FILLER_101_305
*224 FILLER_101_317
*225 FILLER_101_329
*226 FILLER_101_335
*227 FILLER_101_337
*228 FILLER_101_349
*229 FILLER_101_361
*230 FILLER_101_373
*231 FILLER_101_385
*232 FILLER_101_39
*233 FILLER_101_391
*234 FILLER_101_393
*235 FILLER_101_399
*236 FILLER_101_403
*237 FILLER_101_51
*238 FILLER_101_55
*239 FILLER_101_57
*240 FILLER_101_69
*241 FILLER_101_81
*242 FILLER_101_93
*243 FILLER_102_109
*244 FILLER_102_121
*245 FILLER_102_133
*246 FILLER_102_139
*247 FILLER_102_141
*248 FILLER_102_15
*249 FILLER_102_153
*250 FILLER_102_165
*251 FILLER_102_177
*252 FILLER_102_189
*253 FILLER_102_195
*254 FILLER_102_197
*255 FILLER_102_209
*256 FILLER_102_221
*257 FILLER_102_233
*258 FILLER_102_245
*259 FILLER_102_251
*260 FILLER_102_253
*261 FILLER_102_265
*262 FILLER_102_27
*263 FILLER_102_277
*264 FILLER_102_289
*265 FILLER_102_29
*266 FILLER_102_3
*267 FILLER_102_301
*268 FILLER_102_307
*269 FILLER_102_309
*270 FILLER_102_321
*271 FILLER_102_333
*272 FILLER_102_345
*273 FILLER_102_357
*274 FILLER_102_363
*275 FILLER_102_365
*276 FILLER_102_377
*277 FILLER_102_389
*278 FILLER_102_401
*279 FILLER_102_41
*280 FILLER_102_53
*281 FILLER_102_65
*282 FILLER_102_77
*283 FILLER_102_83
*284 FILLER_102_85
*285 FILLER_102_97
*286 FILLER_103_105
*287 FILLER_103_111
*288 FILLER_103_113
*289 FILLER_103_125
*290 FILLER_103_137
*291 FILLER_103_149
*292 FILLER_103_15
*293 FILLER_103_161
*294 FILLER_103_167
*295 FILLER_103_169
*296 FILLER_103_181
*297 FILLER_103_193
*298 FILLER_103_205
*299 FILLER_103_217
*300 FILLER_103_223
*301 FILLER_103_225
*302 FILLER_103_237
*303 FILLER_103_249
*304 FILLER_103_261
*305 FILLER_103_27
*306 FILLER_103_273
*307 FILLER_103_279
*308 FILLER_103_281
*309 FILLER_103_293
*310 FILLER_103_3
*311 FILLER_103_305
*312 FILLER_103_317
*313 FILLER_103_329
*314 FILLER_103_335
*315 FILLER_103_337
*316 FILLER_103_349
*317 FILLER_103_361
*318 FILLER_103_373
*319 FILLER_103_385
*320 FILLER_103_39
*321 FILLER_103_391
*322 FILLER_103_393
*323 FILLER_103_405
*324 FILLER_103_51
*325 FILLER_103_55
*326 FILLER_103_57
*327 FILLER_103_69
*328 FILLER_103_81
*329 FILLER_103_93
*330 FILLER_104_109
*331 FILLER_104_121
*332 FILLER_104_133
*333 FILLER_104_139
*334 FILLER_104_141
*335 FILLER_104_15
*336 FILLER_104_153
*337 FILLER_104_165
*338 FILLER_104_177
*339 FILLER_104_189
*340 FILLER_104_195
*341 FILLER_104_197
*342 FILLER_104_209
*343 FILLER_104_221
*344 FILLER_104_233
*345 FILLER_104_245
*346 FILLER_104_251
*347 FILLER_104_253
*348 FILLER_104_265
*349 FILLER_104_27
*350 FILLER_104_277
*351 FILLER_104_289
*352 FILLER_104_29
*353 FILLER_104_3
*354 FILLER_104_301
*355 FILLER_104_307
*356 FILLER_104_309
*357 FILLER_104_321
*358 FILLER_104_333
*359 FILLER_104_345
*360 FILLER_104_357
*361 FILLER_104_363
*362 FILLER_104_365
*363 FILLER_104_377
*364 FILLER_104_389
*365 FILLER_104_401
*366 FILLER_104_41
*367 FILLER_104_53
*368 FILLER_104_65
*369 FILLER_104_77
*370 FILLER_104_83
*371 FILLER_104_85
*372 FILLER_104_97
*373 FILLER_105_105
*374 FILLER_105_111
*375 FILLER_105_113
*376 FILLER_105_125
*377 FILLER_105_137
*378 FILLER_105_149
*379 FILLER_105_15
*380 FILLER_105_161
*381 FILLER_105_167
*382 FILLER_105_169
*383 FILLER_105_181
*384 FILLER_105_193
*385 FILLER_105_205
*386 FILLER_105_217
*387 FILLER_105_223
*388 FILLER_105_225
*389 FILLER_105_237
*390 FILLER_105_249
*391 FILLER_105_261
*392 FILLER_105_27
*393 FILLER_105_273
*394 FILLER_105_279
*395 FILLER_105_281
*396 FILLER_105_293
*397 FILLER_105_3
*398 FILLER_105_305
*399 FILLER_105_317
*400 FILLER_105_329
*401 FILLER_105_335
*402 FILLER_105_337
*403 FILLER_105_349
*404 FILLER_105_361
*405 FILLER_105_373
*406 FILLER_105_385
*407 FILLER_105_39
*408 FILLER_105_391
*409 FILLER_105_393
*410 FILLER_105_405
*411 FILLER_105_51
*412 FILLER_105_55
*413 FILLER_105_57
*414 FILLER_105_69
*415 FILLER_105_81
*416 FILLER_105_93
*417 FILLER_106_109
*418 FILLER_106_121
*419 FILLER_106_133
*420 FILLER_106_139
*421 FILLER_106_141
*422 FILLER_106_15
*423 FILLER_106_153
*424 FILLER_106_165
*425 FILLER_106_177
*426 FILLER_106_189
*427 FILLER_106_195
*428 FILLER_106_197
*429 FILLER_106_209
*430 FILLER_106_221
*431 FILLER_106_233
*432 FILLER_106_245
*433 FILLER_106_251
*434 FILLER_106_253
*435 FILLER_106_265
*436 FILLER_106_27
*437 FILLER_106_277
*438 FILLER_106_289
*439 FILLER_106_29
*440 FILLER_106_3
*441 FILLER_106_301
*442 FILLER_106_307
*443 FILLER_106_309
*444 FILLER_106_321
*445 FILLER_106_333
*446 FILLER_106_345
*447 FILLER_106_357
*448 FILLER_106_363
*449 FILLER_106_365
*450 FILLER_106_377
*451 FILLER_106_389
*452 FILLER_106_397
*453 FILLER_106_403
*454 FILLER_106_41
*455 FILLER_106_53
*456 FILLER_106_65
*457 FILLER_106_77
*458 FILLER_106_83
*459 FILLER_106_85
*460 FILLER_106_97
*461 FILLER_107_105
*462 FILLER_107_111
*463 FILLER_107_113
*464 FILLER_107_125
*465 FILLER_107_137
*466 FILLER_107_149
*467 FILLER_107_15
*468 FILLER_107_161
*469 FILLER_107_167
*470 FILLER_107_169
*471 FILLER_107_181
*472 FILLER_107_193
*473 FILLER_107_205
*474 FILLER_107_217
*475 FILLER_107_223
*476 FILLER_107_225
*477 FILLER_107_237
*478 FILLER_107_249
*479 FILLER_107_261
*480 FILLER_107_27
*481 FILLER_107_273
*482 FILLER_107_279
*483 FILLER_107_281
*484 FILLER_107_293
*485 FILLER_107_3
*486 FILLER_107_305
*487 FILLER_107_317
*488 FILLER_107_329
*489 FILLER_107_335
*490 FILLER_107_337
*491 FILLER_107_349
*492 FILLER_107_361
*493 FILLER_107_373
*494 FILLER_107_385
*495 FILLER_107_39
*496 FILLER_107_391
*497 FILLER_107_393
*498 FILLER_107_405
*499 FILLER_107_51
*500 FILLER_107_55
*501 FILLER_107_57
*502 FILLER_107_69
*503 FILLER_107_81
*504 FILLER_107_93
*505 FILLER_108_109
*506 FILLER_108_121
*507 FILLER_108_133
*508 FILLER_108_139
*509 FILLER_108_141
*510 FILLER_108_15
*511 FILLER_108_153
*512 FILLER_108_165
*513 FILLER_108_177
*514 FILLER_108_189
*515 FILLER_108_195
*516 FILLER_108_197
*517 FILLER_108_209
*518 FILLER_108_221
*519 FILLER_108_233
*520 FILLER_108_245
*521 FILLER_108_251
*522 FILLER_108_253
*523 FILLER_108_265
*524 FILLER_108_27
*525 FILLER_108_277
*526 FILLER_108_289
*527 FILLER_108_29
*528 FILLER_108_3
*529 FILLER_108_301
*530 FILLER_108_307
*531 FILLER_108_309
*532 FILLER_108_321
*533 FILLER_108_333
*534 FILLER_108_345
*535 FILLER_108_357
*536 FILLER_108_363
*537 FILLER_108_365
*538 FILLER_108_377
*539 FILLER_108_389
*540 FILLER_108_401
*541 FILLER_108_41
*542 FILLER_108_53
*543 FILLER_108_65
*544 FILLER_108_77
*545 FILLER_108_83
*546 FILLER_108_85
*547 FILLER_108_97
*548 FILLER_109_105
*549 FILLER_109_111
*550 FILLER_109_113
*551 FILLER_109_125
*552 FILLER_109_137
*553 FILLER_109_149
*554 FILLER_109_15
*555 FILLER_109_161
*556 FILLER_109_167
*557 FILLER_109_169
*558 FILLER_109_181
*559 FILLER_109_193
*560 FILLER_109_205
*561 FILLER_109_217
*562 FILLER_109_223
*563 FILLER_109_225
*564 FILLER_109_237
*565 FILLER_109_249
*566 FILLER_109_261
*567 FILLER_109_27
*568 FILLER_109_273
*569 FILLER_109_279
*570 FILLER_109_281
*571 FILLER_109_293
*572 FILLER_109_3
*573 FILLER_109_305
*574 FILLER_109_317
*575 FILLER_109_329
*576 FILLER_109_335
*577 FILLER_109_337
*578 FILLER_109_349
*579 FILLER_109_361
*580 FILLER_109_373
*581 FILLER_109_385
*582 FILLER_109_39
*583 FILLER_109_391
*584 FILLER_109_393
*585 FILLER_109_405
*586 FILLER_109_51
*587 FILLER_109_55
*588 FILLER_109_57
*589 FILLER_109_69
*590 FILLER_109_81
*591 FILLER_109_93
*592 FILLER_10_109
*593 FILLER_10_121
*594 FILLER_10_133
*595 FILLER_10_139
*596 FILLER_10_141
*597 FILLER_10_15
*598 FILLER_10_153
*599 FILLER_10_165
*600 FILLER_10_177
*601 FILLER_10_189
*602 FILLER_10_195
*603 FILLER_10_197
*604 FILLER_10_209
*605 FILLER_10_221
*606 FILLER_10_233
*607 FILLER_10_245
*608 FILLER_10_251
*609 FILLER_10_253
*610 FILLER_10_265
*611 FILLER_10_27
*612 FILLER_10_277
*613 FILLER_10_289
*614 FILLER_10_29
*615 FILLER_10_3
*616 FILLER_10_301
*617 FILLER_10_307
*618 FILLER_10_309
*619 FILLER_10_321
*620 FILLER_10_333
*621 FILLER_10_345
*622 FILLER_10_357
*623 FILLER_10_363
*624 FILLER_10_365
*625 FILLER_10_377
*626 FILLER_10_389
*627 FILLER_10_401
*628 FILLER_10_41
*629 FILLER_10_53
*630 FILLER_10_65
*631 FILLER_10_77
*632 FILLER_10_83
*633 FILLER_10_85
*634 FILLER_10_97
*635 FILLER_110_109
*636 FILLER_110_121
*637 FILLER_110_133
*638 FILLER_110_139
*639 FILLER_110_141
*640 FILLER_110_15
*641 FILLER_110_153
*642 FILLER_110_165
*643 FILLER_110_177
*644 FILLER_110_189
*645 FILLER_110_195
*646 FILLER_110_197
*647 FILLER_110_209
*648 FILLER_110_221
*649 FILLER_110_233
*650 FILLER_110_245
*651 FILLER_110_251
*652 FILLER_110_253
*653 FILLER_110_265
*654 FILLER_110_27
*655 FILLER_110_277
*656 FILLER_110_289
*657 FILLER_110_29
*658 FILLER_110_3
*659 FILLER_110_301
*660 FILLER_110_307
*661 FILLER_110_309
*662 FILLER_110_321
*663 FILLER_110_333
*664 FILLER_110_345
*665 FILLER_110_357
*666 FILLER_110_363
*667 FILLER_110_365
*668 FILLER_110_377
*669 FILLER_110_389
*670 FILLER_110_401
*671 FILLER_110_41
*672 FILLER_110_53
*673 FILLER_110_65
*674 FILLER_110_77
*675 FILLER_110_83
*676 FILLER_110_85
*677 FILLER_110_97
*678 FILLER_111_105
*679 FILLER_111_111
*680 FILLER_111_113
*681 FILLER_111_125
*682 FILLER_111_137
*683 FILLER_111_149
*684 FILLER_111_15
*685 FILLER_111_161
*686 FILLER_111_167
*687 FILLER_111_169
*688 FILLER_111_181
*689 FILLER_111_193
*690 FILLER_111_205
*691 FILLER_111_217
*692 FILLER_111_223
*693 FILLER_111_225
*694 FILLER_111_237
*695 FILLER_111_249
*696 FILLER_111_261
*697 FILLER_111_27
*698 FILLER_111_273
*699 FILLER_111_279
*700 FILLER_111_281
*701 FILLER_111_293
*702 FILLER_111_3
*703 FILLER_111_305
*704 FILLER_111_317
*705 FILLER_111_329
*706 FILLER_111_335
*707 FILLER_111_337
*708 FILLER_111_349
*709 FILLER_111_361
*710 FILLER_111_373
*711 FILLER_111_385
*712 FILLER_111_39
*713 FILLER_111_391
*714 FILLER_111_393
*715 FILLER_111_405
*716 FILLER_111_51
*717 FILLER_111_55
*718 FILLER_111_57
*719 FILLER_111_69
*720 FILLER_111_81
*721 FILLER_111_93
*722 FILLER_112_109
*723 FILLER_112_121
*724 FILLER_112_133
*725 FILLER_112_139
*726 FILLER_112_141
*727 FILLER_112_15
*728 FILLER_112_153
*729 FILLER_112_165
*730 FILLER_112_177
*731 FILLER_112_189
*732 FILLER_112_195
*733 FILLER_112_197
*734 FILLER_112_209
*735 FILLER_112_221
*736 FILLER_112_233
*737 FILLER_112_245
*738 FILLER_112_251
*739 FILLER_112_253
*740 FILLER_112_265
*741 FILLER_112_27
*742 FILLER_112_277
*743 FILLER_112_289
*744 FILLER_112_29
*745 FILLER_112_3
*746 FILLER_112_301
*747 FILLER_112_307
*748 FILLER_112_309
*749 FILLER_112_321
*750 FILLER_112_333
*751 FILLER_112_345
*752 FILLER_112_357
*753 FILLER_112_363
*754 FILLER_112_365
*755 FILLER_112_377
*756 FILLER_112_389
*757 FILLER_112_397
*758 FILLER_112_403
*759 FILLER_112_41
*760 FILLER_112_53
*761 FILLER_112_65
*762 FILLER_112_77
*763 FILLER_112_83
*764 FILLER_112_85
*765 FILLER_112_97
*766 FILLER_113_105
*767 FILLER_113_111
*768 FILLER_113_113
*769 FILLER_113_125
*770 FILLER_113_137
*771 FILLER_113_149
*772 FILLER_113_15
*773 FILLER_113_161
*774 FILLER_113_167
*775 FILLER_113_169
*776 FILLER_113_181
*777 FILLER_113_193
*778 FILLER_113_205
*779 FILLER_113_217
*780 FILLER_113_223
*781 FILLER_113_225
*782 FILLER_113_237
*783 FILLER_113_249
*784 FILLER_113_261
*785 FILLER_113_27
*786 FILLER_113_273
*787 FILLER_113_279
*788 FILLER_113_281
*789 FILLER_113_293
*790 FILLER_113_3
*791 FILLER_113_305
*792 FILLER_113_317
*793 FILLER_113_329
*794 FILLER_113_335
*795 FILLER_113_337
*796 FILLER_113_349
*797 FILLER_113_361
*798 FILLER_113_373
*799 FILLER_113_385
*800 FILLER_113_39
*801 FILLER_113_391
*802 FILLER_113_393
*803 FILLER_113_405
*804 FILLER_113_51
*805 FILLER_113_55
*806 FILLER_113_57
*807 FILLER_113_69
*808 FILLER_113_81
*809 FILLER_113_93
*810 FILLER_114_109
*811 FILLER_114_121
*812 FILLER_114_133
*813 FILLER_114_139
*814 FILLER_114_141
*815 FILLER_114_15
*816 FILLER_114_153
*817 FILLER_114_165
*818 FILLER_114_177
*819 FILLER_114_189
*820 FILLER_114_195
*821 FILLER_114_197
*822 FILLER_114_209
*823 FILLER_114_221
*824 FILLER_114_233
*825 FILLER_114_245
*826 FILLER_114_251
*827 FILLER_114_253
*828 FILLER_114_265
*829 FILLER_114_27
*830 FILLER_114_277
*831 FILLER_114_289
*832 FILLER_114_29
*833 FILLER_114_3
*834 FILLER_114_301
*835 FILLER_114_307
*836 FILLER_114_309
*837 FILLER_114_321
*838 FILLER_114_333
*839 FILLER_114_345
*840 FILLER_114_357
*841 FILLER_114_363
*842 FILLER_114_365
*843 FILLER_114_377
*844 FILLER_114_389
*845 FILLER_114_401
*846 FILLER_114_41
*847 FILLER_114_53
*848 FILLER_114_65
*849 FILLER_114_77
*850 FILLER_114_83
*851 FILLER_114_85
*852 FILLER_114_97
*853 FILLER_115_105
*854 FILLER_115_111
*855 FILLER_115_113
*856 FILLER_115_125
*857 FILLER_115_137
*858 FILLER_115_149
*859 FILLER_115_15
*860 FILLER_115_161
*861 FILLER_115_167
*862 FILLER_115_169
*863 FILLER_115_181
*864 FILLER_115_193
*865 FILLER_115_205
*866 FILLER_115_217
*867 FILLER_115_223
*868 FILLER_115_225
*869 FILLER_115_237
*870 FILLER_115_249
*871 FILLER_115_261
*872 FILLER_115_27
*873 FILLER_115_273
*874 FILLER_115_279
*875 FILLER_115_281
*876 FILLER_115_293
*877 FILLER_115_3
*878 FILLER_115_305
*879 FILLER_115_317
*880 FILLER_115_329
*881 FILLER_115_335
*882 FILLER_115_337
*883 FILLER_115_349
*884 FILLER_115_361
*885 FILLER_115_373
*886 FILLER_115_385
*887 FILLER_115_39
*888 FILLER_115_391
*889 FILLER_115_393
*890 FILLER_115_405
*891 FILLER_115_51
*892 FILLER_115_55
*893 FILLER_115_57
*894 FILLER_115_69
*895 FILLER_115_81
*896 FILLER_115_93
*897 FILLER_116_109
*898 FILLER_116_121
*899 FILLER_116_133
*900 FILLER_116_139
*901 FILLER_116_141
*902 FILLER_116_15
*903 FILLER_116_153
*904 FILLER_116_165
*905 FILLER_116_177
*906 FILLER_116_189
*907 FILLER_116_195
*908 FILLER_116_197
*909 FILLER_116_209
*910 FILLER_116_221
*911 FILLER_116_233
*912 FILLER_116_245
*913 FILLER_116_251
*914 FILLER_116_253
*915 FILLER_116_265
*916 FILLER_116_27
*917 FILLER_116_277
*918 FILLER_116_289
*919 FILLER_116_29
*920 FILLER_116_3
*921 FILLER_116_301
*922 FILLER_116_307
*923 FILLER_116_309
*924 FILLER_116_321
*925 FILLER_116_333
*926 FILLER_116_345
*927 FILLER_116_357
*928 FILLER_116_363
*929 FILLER_116_365
*930 FILLER_116_377
*931 FILLER_116_389
*932 FILLER_116_401
*933 FILLER_116_41
*934 FILLER_116_53
*935 FILLER_116_65
*936 FILLER_116_77
*937 FILLER_116_83
*938 FILLER_116_85
*939 FILLER_116_97
*940 FILLER_117_105
*941 FILLER_117_111
*942 FILLER_117_113
*943 FILLER_117_125
*944 FILLER_117_137
*945 FILLER_117_149
*946 FILLER_117_15
*947 FILLER_117_161
*948 FILLER_117_167
*949 FILLER_117_169
*950 FILLER_117_181
*951 FILLER_117_193
*952 FILLER_117_205
*953 FILLER_117_217
*954 FILLER_117_223
*955 FILLER_117_225
*956 FILLER_117_237
*957 FILLER_117_249
*958 FILLER_117_261
*959 FILLER_117_27
*960 FILLER_117_273
*961 FILLER_117_279
*962 FILLER_117_281
*963 FILLER_117_293
*964 FILLER_117_3
*965 FILLER_117_305
*966 FILLER_117_317
*967 FILLER_117_329
*968 FILLER_117_335
*969 FILLER_117_337
*970 FILLER_117_349
*971 FILLER_117_361
*972 FILLER_117_373
*973 FILLER_117_385
*974 FILLER_117_39
*975 FILLER_117_391
*976 FILLER_117_393
*977 FILLER_117_399
*978 FILLER_117_403
*979 FILLER_117_51
*980 FILLER_117_55
*981 FILLER_117_57
*982 FILLER_117_69
*983 FILLER_117_81
*984 FILLER_117_93
*985 FILLER_118_109
*986 FILLER_118_121
*987 FILLER_118_133
*988 FILLER_118_139
*989 FILLER_118_141
*990 FILLER_118_15
*991 FILLER_118_153
*992 FILLER_118_165
*993 FILLER_118_177
*994 FILLER_118_189
*995 FILLER_118_195
*996 FILLER_118_197
*997 FILLER_118_209
*998 FILLER_118_221
*999 FILLER_118_233
*1000 FILLER_118_245
*1001 FILLER_118_251
*1002 FILLER_118_253
*1003 FILLER_118_265
*1004 FILLER_118_27
*1005 FILLER_118_277
*1006 FILLER_118_289
*1007 FILLER_118_29
*1008 FILLER_118_3
*1009 FILLER_118_301
*1010 FILLER_118_307
*1011 FILLER_118_309
*1012 FILLER_118_321
*1013 FILLER_118_333
*1014 FILLER_118_345
*1015 FILLER_118_357
*1016 FILLER_118_363
*1017 FILLER_118_365
*1018 FILLER_118_377
*1019 FILLER_118_389
*1020 FILLER_118_401
*1021 FILLER_118_41
*1022 FILLER_118_53
*1023 FILLER_118_65
*1024 FILLER_118_77
*1025 FILLER_118_83
*1026 FILLER_118_85
*1027 FILLER_118_97
*1028 FILLER_119_105
*1029 FILLER_119_111
*1030 FILLER_119_113
*1031 FILLER_119_125
*1032 FILLER_119_137
*1033 FILLER_119_149
*1034 FILLER_119_15
*1035 FILLER_119_161
*1036 FILLER_119_167
*1037 FILLER_119_169
*1038 FILLER_119_181
*1039 FILLER_119_193
*1040 FILLER_119_205
*1041 FILLER_119_217
*1042 FILLER_119_223
*1043 FILLER_119_225
*1044 FILLER_119_237
*1045 FILLER_119_249
*1046 FILLER_119_261
*1047 FILLER_119_27
*1048 FILLER_119_273
*1049 FILLER_119_279
*1050 FILLER_119_281
*1051 FILLER_119_293
*1052 FILLER_119_3
*1053 FILLER_119_305
*1054 FILLER_119_317
*1055 FILLER_119_329
*1056 FILLER_119_335
*1057 FILLER_119_337
*1058 FILLER_119_349
*1059 FILLER_119_361
*1060 FILLER_119_373
*1061 FILLER_119_385
*1062 FILLER_119_39
*1063 FILLER_119_391
*1064 FILLER_119_393
*1065 FILLER_119_405
*1066 FILLER_119_51
*1067 FILLER_119_55
*1068 FILLER_119_57
*1069 FILLER_119_69
*1070 FILLER_119_81
*1071 FILLER_119_93
*1072 FILLER_11_105
*1073 FILLER_11_111
*1074 FILLER_11_113
*1075 FILLER_11_125
*1076 FILLER_11_137
*1077 FILLER_11_149
*1078 FILLER_11_15
*1079 FILLER_11_161
*1080 FILLER_11_167
*1081 FILLER_11_169
*1082 FILLER_11_181
*1083 FILLER_11_193
*1084 FILLER_11_205
*1085 FILLER_11_217
*1086 FILLER_11_223
*1087 FILLER_11_225
*1088 FILLER_11_237
*1089 FILLER_11_249
*1090 FILLER_11_261
*1091 FILLER_11_27
*1092 FILLER_11_273
*1093 FILLER_11_279
*1094 FILLER_11_281
*1095 FILLER_11_293
*1096 FILLER_11_3
*1097 FILLER_11_305
*1098 FILLER_11_317
*1099 FILLER_11_329
*1100 FILLER_11_335
*1101 FILLER_11_337
*1102 FILLER_11_349
*1103 FILLER_11_361
*1104 FILLER_11_373
*1105 FILLER_11_385
*1106 FILLER_11_39
*1107 FILLER_11_391
*1108 FILLER_11_393
*1109 FILLER_11_405
*1110 FILLER_11_51
*1111 FILLER_11_55
*1112 FILLER_11_57
*1113 FILLER_11_69
*1114 FILLER_11_81
*1115 FILLER_11_93
*1116 FILLER_120_109
*1117 FILLER_120_121
*1118 FILLER_120_133
*1119 FILLER_120_139
*1120 FILLER_120_141
*1121 FILLER_120_15
*1122 FILLER_120_153
*1123 FILLER_120_165
*1124 FILLER_120_177
*1125 FILLER_120_189
*1126 FILLER_120_195
*1127 FILLER_120_197
*1128 FILLER_120_209
*1129 FILLER_120_221
*1130 FILLER_120_233
*1131 FILLER_120_245
*1132 FILLER_120_251
*1133 FILLER_120_253
*1134 FILLER_120_265
*1135 FILLER_120_27
*1136 FILLER_120_277
*1137 FILLER_120_289
*1138 FILLER_120_29
*1139 FILLER_120_3
*1140 FILLER_120_301
*1141 FILLER_120_307
*1142 FILLER_120_309
*1143 FILLER_120_321
*1144 FILLER_120_333
*1145 FILLER_120_345
*1146 FILLER_120_357
*1147 FILLER_120_363
*1148 FILLER_120_365
*1149 FILLER_120_377
*1150 FILLER_120_389
*1151 FILLER_120_401
*1152 FILLER_120_41
*1153 FILLER_120_53
*1154 FILLER_120_65
*1155 FILLER_120_77
*1156 FILLER_120_83
*1157 FILLER_120_85
*1158 FILLER_120_97
*1159 FILLER_121_105
*1160 FILLER_121_111
*1161 FILLER_121_113
*1162 FILLER_121_125
*1163 FILLER_121_137
*1164 FILLER_121_149
*1165 FILLER_121_15
*1166 FILLER_121_161
*1167 FILLER_121_167
*1168 FILLER_121_169
*1169 FILLER_121_181
*1170 FILLER_121_193
*1171 FILLER_121_205
*1172 FILLER_121_217
*1173 FILLER_121_223
*1174 FILLER_121_225
*1175 FILLER_121_237
*1176 FILLER_121_249
*1177 FILLER_121_261
*1178 FILLER_121_27
*1179 FILLER_121_273
*1180 FILLER_121_279
*1181 FILLER_121_281
*1182 FILLER_121_293
*1183 FILLER_121_3
*1184 FILLER_121_305
*1185 FILLER_121_317
*1186 FILLER_121_329
*1187 FILLER_121_335
*1188 FILLER_121_337
*1189 FILLER_121_349
*1190 FILLER_121_361
*1191 FILLER_121_373
*1192 FILLER_121_385
*1193 FILLER_121_39
*1194 FILLER_121_391
*1195 FILLER_121_393
*1196 FILLER_121_405
*1197 FILLER_121_51
*1198 FILLER_121_55
*1199 FILLER_121_57
*1200 FILLER_121_69
*1201 FILLER_121_81
*1202 FILLER_121_93
*1203 FILLER_122_109
*1204 FILLER_122_121
*1205 FILLER_122_133
*1206 FILLER_122_139
*1207 FILLER_122_141
*1208 FILLER_122_15
*1209 FILLER_122_153
*1210 FILLER_122_165
*1211 FILLER_122_177
*1212 FILLER_122_189
*1213 FILLER_122_195
*1214 FILLER_122_197
*1215 FILLER_122_209
*1216 FILLER_122_221
*1217 FILLER_122_233
*1218 FILLER_122_245
*1219 FILLER_122_251
*1220 FILLER_122_253
*1221 FILLER_122_265
*1222 FILLER_122_27
*1223 FILLER_122_277
*1224 FILLER_122_289
*1225 FILLER_122_29
*1226 FILLER_122_3
*1227 FILLER_122_301
*1228 FILLER_122_307
*1229 FILLER_122_309
*1230 FILLER_122_321
*1231 FILLER_122_333
*1232 FILLER_122_345
*1233 FILLER_122_357
*1234 FILLER_122_363
*1235 FILLER_122_365
*1236 FILLER_122_377
*1237 FILLER_122_389
*1238 FILLER_122_401
*1239 FILLER_122_41
*1240 FILLER_122_53
*1241 FILLER_122_65
*1242 FILLER_122_77
*1243 FILLER_122_83
*1244 FILLER_122_85
*1245 FILLER_122_97
*1246 FILLER_123_105
*1247 FILLER_123_111
*1248 FILLER_123_113
*1249 FILLER_123_125
*1250 FILLER_123_137
*1251 FILLER_123_149
*1252 FILLER_123_15
*1253 FILLER_123_161
*1254 FILLER_123_167
*1255 FILLER_123_169
*1256 FILLER_123_181
*1257 FILLER_123_193
*1258 FILLER_123_205
*1259 FILLER_123_217
*1260 FILLER_123_223
*1261 FILLER_123_225
*1262 FILLER_123_237
*1263 FILLER_123_249
*1264 FILLER_123_261
*1265 FILLER_123_27
*1266 FILLER_123_273
*1267 FILLER_123_279
*1268 FILLER_123_281
*1269 FILLER_123_293
*1270 FILLER_123_3
*1271 FILLER_123_305
*1272 FILLER_123_317
*1273 FILLER_123_329
*1274 FILLER_123_335
*1275 FILLER_123_337
*1276 FILLER_123_349
*1277 FILLER_123_361
*1278 FILLER_123_373
*1279 FILLER_123_385
*1280 FILLER_123_39
*1281 FILLER_123_391
*1282 FILLER_123_393
*1283 FILLER_123_399
*1284 FILLER_123_403
*1285 FILLER_123_51
*1286 FILLER_123_55
*1287 FILLER_123_57
*1288 FILLER_123_69
*1289 FILLER_123_81
*1290 FILLER_123_93
*1291 FILLER_124_109
*1292 FILLER_124_121
*1293 FILLER_124_133
*1294 FILLER_124_139
*1295 FILLER_124_141
*1296 FILLER_124_15
*1297 FILLER_124_153
*1298 FILLER_124_165
*1299 FILLER_124_177
*1300 FILLER_124_189
*1301 FILLER_124_195
*1302 FILLER_124_197
*1303 FILLER_124_209
*1304 FILLER_124_221
*1305 FILLER_124_233
*1306 FILLER_124_245
*1307 FILLER_124_251
*1308 FILLER_124_253
*1309 FILLER_124_265
*1310 FILLER_124_27
*1311 FILLER_124_277
*1312 FILLER_124_289
*1313 FILLER_124_29
*1314 FILLER_124_3
*1315 FILLER_124_301
*1316 FILLER_124_307
*1317 FILLER_124_309
*1318 FILLER_124_321
*1319 FILLER_124_333
*1320 FILLER_124_345
*1321 FILLER_124_357
*1322 FILLER_124_363
*1323 FILLER_124_365
*1324 FILLER_124_377
*1325 FILLER_124_389
*1326 FILLER_124_401
*1327 FILLER_124_41
*1328 FILLER_124_53
*1329 FILLER_124_65
*1330 FILLER_124_77
*1331 FILLER_124_83
*1332 FILLER_124_85
*1333 FILLER_124_97
*1334 FILLER_125_105
*1335 FILLER_125_111
*1336 FILLER_125_113
*1337 FILLER_125_125
*1338 FILLER_125_137
*1339 FILLER_125_149
*1340 FILLER_125_15
*1341 FILLER_125_161
*1342 FILLER_125_167
*1343 FILLER_125_169
*1344 FILLER_125_181
*1345 FILLER_125_193
*1346 FILLER_125_205
*1347 FILLER_125_217
*1348 FILLER_125_223
*1349 FILLER_125_225
*1350 FILLER_125_237
*1351 FILLER_125_249
*1352 FILLER_125_261
*1353 FILLER_125_27
*1354 FILLER_125_273
*1355 FILLER_125_279
*1356 FILLER_125_281
*1357 FILLER_125_293
*1358 FILLER_125_3
*1359 FILLER_125_305
*1360 FILLER_125_317
*1361 FILLER_125_329
*1362 FILLER_125_335
*1363 FILLER_125_337
*1364 FILLER_125_349
*1365 FILLER_125_361
*1366 FILLER_125_373
*1367 FILLER_125_385
*1368 FILLER_125_39
*1369 FILLER_125_391
*1370 FILLER_125_393
*1371 FILLER_125_405
*1372 FILLER_125_51
*1373 FILLER_125_55
*1374 FILLER_125_57
*1375 FILLER_125_69
*1376 FILLER_125_81
*1377 FILLER_125_93
*1378 FILLER_126_109
*1379 FILLER_126_121
*1380 FILLER_126_133
*1381 FILLER_126_139
*1382 FILLER_126_141
*1383 FILLER_126_15
*1384 FILLER_126_153
*1385 FILLER_126_165
*1386 FILLER_126_177
*1387 FILLER_126_189
*1388 FILLER_126_195
*1389 FILLER_126_197
*1390 FILLER_126_209
*1391 FILLER_126_221
*1392 FILLER_126_233
*1393 FILLER_126_245
*1394 FILLER_126_251
*1395 FILLER_126_253
*1396 FILLER_126_265
*1397 FILLER_126_27
*1398 FILLER_126_277
*1399 FILLER_126_289
*1400 FILLER_126_29
*1401 FILLER_126_3
*1402 FILLER_126_301
*1403 FILLER_126_307
*1404 FILLER_126_309
*1405 FILLER_126_321
*1406 FILLER_126_333
*1407 FILLER_126_345
*1408 FILLER_126_357
*1409 FILLER_126_363
*1410 FILLER_126_365
*1411 FILLER_126_377
*1412 FILLER_126_389
*1413 FILLER_126_401
*1414 FILLER_126_41
*1415 FILLER_126_53
*1416 FILLER_126_65
*1417 FILLER_126_77
*1418 FILLER_126_83
*1419 FILLER_126_85
*1420 FILLER_126_97
*1421 FILLER_127_105
*1422 FILLER_127_111
*1423 FILLER_127_113
*1424 FILLER_127_125
*1425 FILLER_127_137
*1426 FILLER_127_149
*1427 FILLER_127_15
*1428 FILLER_127_161
*1429 FILLER_127_167
*1430 FILLER_127_169
*1431 FILLER_127_181
*1432 FILLER_127_193
*1433 FILLER_127_205
*1434 FILLER_127_217
*1435 FILLER_127_223
*1436 FILLER_127_225
*1437 FILLER_127_237
*1438 FILLER_127_249
*1439 FILLER_127_261
*1440 FILLER_127_27
*1441 FILLER_127_273
*1442 FILLER_127_279
*1443 FILLER_127_281
*1444 FILLER_127_293
*1445 FILLER_127_3
*1446 FILLER_127_305
*1447 FILLER_127_317
*1448 FILLER_127_329
*1449 FILLER_127_335
*1450 FILLER_127_337
*1451 FILLER_127_349
*1452 FILLER_127_361
*1453 FILLER_127_373
*1454 FILLER_127_385
*1455 FILLER_127_39
*1456 FILLER_127_391
*1457 FILLER_127_393
*1458 FILLER_127_405
*1459 FILLER_127_51
*1460 FILLER_127_55
*1461 FILLER_127_57
*1462 FILLER_127_69
*1463 FILLER_127_81
*1464 FILLER_127_93
*1465 FILLER_128_109
*1466 FILLER_128_121
*1467 FILLER_128_133
*1468 FILLER_128_139
*1469 FILLER_128_141
*1470 FILLER_128_15
*1471 FILLER_128_153
*1472 FILLER_128_165
*1473 FILLER_128_177
*1474 FILLER_128_189
*1475 FILLER_128_195
*1476 FILLER_128_197
*1477 FILLER_128_209
*1478 FILLER_128_221
*1479 FILLER_128_233
*1480 FILLER_128_245
*1481 FILLER_128_251
*1482 FILLER_128_253
*1483 FILLER_128_265
*1484 FILLER_128_27
*1485 FILLER_128_277
*1486 FILLER_128_289
*1487 FILLER_128_29
*1488 FILLER_128_3
*1489 FILLER_128_301
*1490 FILLER_128_307
*1491 FILLER_128_309
*1492 FILLER_128_321
*1493 FILLER_128_333
*1494 FILLER_128_345
*1495 FILLER_128_357
*1496 FILLER_128_363
*1497 FILLER_128_365
*1498 FILLER_128_377
*1499 FILLER_128_389
*1500 FILLER_128_401
*1501 FILLER_128_41
*1502 FILLER_128_53