*SPEF "ieee 1481-1999"
*DESIGN "Flash"
*DATE "11:11:11 Fri 11 11, 1111"
*VENDOR "OpenRCX"
*PROGRAM "Parallel Extraction"
*VERSION "1.0"
*DESIGN_FLOW "NAME_SCOPE LOCAL" "PIN_CAP NONE"
*DIVIDER /
*DELIMITER :
*BUS_DELIMITER []
*T_UNIT 1 NS
*C_UNIT 1 PF
*R_UNIT 1 OHM
*L_UNIT 1 HENRY

*NAME_MAP
*1 net106
*2 flash_io0_read
*3 net153
*4 net107
*5 flash_io1_read
*6 net108
*7 net109
*8 net110
*9 net111
*10 net112
*11 net113
*12 net114
*13 net115
*14 net116
*15 net117
*16 net118
*17 net119
*18 sram_addr1[0]
*19 sram_addr1[1]
*20 sram_addr1[2]
*21 sram_addr1[3]
*22 sram_addr1[4]
*23 sram_addr1[5]
*24 sram_addr1[6]
*25 sram_addr1[7]
*26 sram_addr1[8]
*27 sram_clk0
*28 sram_clk1
*29 net154
*30 sram_csb1
*31 net120
*32 net130
*33 net131
*34 net132
*35 net133
*36 net134
*37 net135
*38 net136
*39 net137
*40 net138
*41 net139
*42 net121
*43 net140
*44 net141
*45 net142
*46 net143
*47 net144
*48 net145
*49 net146
*50 net147
*51 net148
*52 net149
*53 net122
*54 net150
*55 net151
*56 net123
*57 net124
*58 net125
*59 net126
*60 net127
*61 net128
*62 net129
*63 sram_dout0[0]
*64 sram_dout0[10]
*65 sram_dout0[11]
*66 sram_dout0[12]
*67 sram_dout0[13]
*68 sram_dout0[14]
*69 sram_dout0[15]
*70 sram_dout0[16]
*71 sram_dout0[17]
*72 sram_dout0[18]
*73 sram_dout0[19]
*74 sram_dout0[1]
*75 sram_dout0[20]
*76 sram_dout0[21]
*77 sram_dout0[22]
*78 sram_dout0[23]
*79 sram_dout0[24]
*80 sram_dout0[25]
*81 sram_dout0[26]
*82 sram_dout0[27]
*83 sram_dout0[28]
*84 sram_dout0[29]
*85 sram_dout0[2]
*86 sram_dout0[30]
*87 sram_dout0[31]
*88 sram_dout0[3]
*89 sram_dout0[4]
*90 sram_dout0[5]
*91 sram_dout0[6]
*92 sram_dout0[7]
*93 sram_dout0[8]
*94 sram_dout0[9]
*95 sram_dout1[0]
*96 sram_dout1[10]
*97 sram_dout1[11]
*98 sram_dout1[12]
*99 sram_dout1[13]
*100 sram_dout1[14]
*101 sram_dout1[15]
*102 sram_dout1[16]
*103 sram_dout1[17]
*104 sram_dout1[18]
*105 sram_dout1[19]
*106 sram_dout1[1]
*107 sram_dout1[20]
*108 sram_dout1[21]
*109 sram_dout1[22]
*110 sram_dout1[23]
*111 sram_dout1[24]
*112 sram_dout1[25]
*113 sram_dout1[26]
*114 sram_dout1[27]
*115 sram_dout1[28]
*116 sram_dout1[29]
*117 sram_dout1[2]
*118 sram_dout1[30]
*119 sram_dout1[31]
*120 sram_dout1[3]
*121 sram_dout1[4]
*122 sram_dout1[5]
*123 sram_dout1[6]
*124 sram_dout1[7]
*125 sram_dout1[8]
*126 sram_dout1[9]
*127 net155
*128 net156
*129 net157
*130 net158
*131 net159
*134 wb_ack_o
*135 wb_adr_i[0]
*136 wb_adr_i[10]
*137 wb_adr_i[11]
*138 wb_adr_i[12]
*139 wb_adr_i[13]
*140 wb_adr_i[14]
*141 wb_adr_i[15]
*142 wb_adr_i[16]
*143 wb_adr_i[17]
*144 wb_adr_i[18]
*145 wb_adr_i[19]
*146 wb_adr_i[1]
*147 wb_adr_i[20]
*148 wb_adr_i[21]
*149 wb_adr_i[22]
*150 wb_adr_i[23]
*151 wb_adr_i[2]
*152 wb_adr_i[3]
*153 wb_adr_i[4]
*154 wb_adr_i[5]
*155 wb_adr_i[6]
*156 wb_adr_i[7]
*157 wb_adr_i[8]
*158 wb_adr_i[9]
*159 wb_clk_i
*160 wb_cyc_i
*161 wb_data_i[0]
*162 wb_data_i[10]
*163 wb_data_i[11]
*164 wb_data_i[12]
*165 wb_data_i[13]
*166 wb_data_i[14]
*167 wb_data_i[15]
*168 wb_data_i[16]
*169 wb_data_i[17]
*170 wb_data_i[18]
*171 wb_data_i[19]
*172 wb_data_i[1]
*173 wb_data_i[20]
*174 wb_data_i[21]
*175 wb_data_i[22]
*176 wb_data_i[23]
*177 wb_data_i[24]
*178 wb_data_i[25]
*179 wb_data_i[26]
*180 wb_data_i[27]
*181 wb_data_i[28]
*182 wb_data_i[29]
*183 wb_data_i[2]
*184 wb_data_i[30]
*185 wb_data_i[31]
*186 wb_data_i[3]
*187 wb_data_i[4]
*188 wb_data_i[5]
*189 wb_data_i[6]
*190 wb_data_i[7]
*191 wb_data_i[8]
*192 wb_data_i[9]
*193 wb_data_o[0]
*194 wb_data_o[10]
*195 wb_data_o[11]
*196 wb_data_o[12]
*197 wb_data_o[13]
*198 wb_data_o[14]
*199 wb_data_o[15]
*200 wb_data_o[16]
*201 wb_data_o[17]
*202 wb_data_o[18]
*203 wb_data_o[19]
*204 wb_data_o[1]
*205 wb_data_o[20]
*206 wb_data_o[21]
*207 wb_data_o[22]
*208 wb_data_o[23]
*209 wb_data_o[24]
*210 wb_data_o[25]
*211 wb_data_o[26]
*212 wb_data_o[27]
*213 wb_data_o[28]
*214 wb_data_o[29]
*215 wb_data_o[2]
*216 wb_data_o[30]
*217 wb_data_o[31]
*218 wb_data_o[3]
*219 wb_data_o[4]
*220 wb_data_o[5]
*221 wb_data_o[6]
*222 wb_data_o[7]
*223 wb_data_o[8]
*224 wb_data_o[9]
*225 net152
*226 wb_rst_i
*227 wb_sel_i[0]
*228 wb_sel_i[1]
*229 wb_sel_i[2]
*230 wb_sel_i[3]
*231 wb_stall_o
*232 wb_stb_i
*233 wb_we_i
*234 _000_
*235 _001_
*236 _002_
*237 _003_
*238 _004_
*239 _005_
*240 _006_
*241 _007_
*242 _008_
*243 _009_
*244 _010_
*245 _011_
*246 _012_
*247 _013_
*248 _014_
*249 _015_
*250 _016_
*251 _017_
*252 _018_
*253 _019_
*254 _020_
*255 _021_
*256 _022_
*257 _023_
*258 _024_
*259 _025_
*260 _026_
*261 _027_
*262 _028_
*263 _029_
*264 _030_
*265 _031_
*266 _032_
*267 _033_
*268 _034_
*269 _035_
*270 _036_
*271 _037_
*272 _038_
*273 _039_
*274 _040_
*275 _041_
*276 _042_
*277 _043_
*278 _044_
*279 _045_
*280 _046_
*281 _047_
*282 _048_
*283 _049_
*284 _050_
*285 _051_
*286 _052_
*287 _053_
*288 _054_
*289 _055_
*290 _056_
*291 _057_
*292 _058_
*293 _059_
*294 _060_
*295 _061_
*296 _062_
*297 _063_
*298 _064_
*299 _065_
*300 _066_
*301 _067_
*302 _068_
*303 _069_
*304 _070_
*305 _071_
*306 _072_
*307 _073_
*308 _074_
*309 _075_
*310 _076_
*311 _077_
*312 _078_
*313 _079_
*314 _080_
*315 _081_
*316 _082_
*317 _083_
*318 _084_
*319 _085_
*320 _086_
*321 _087_
*322 _088_
*323 _089_
*324 _090_
*325 _091_
*326 _092_
*327 _093_
*328 _094_
*329 _095_
*330 _096_
*331 _097_
*332 _098_
*333 _099_
*334 _100_
*335 _101_
*336 _102_
*337 _103_
*338 _104_
*339 _105_
*340 _106_
*341 _107_
*342 _108_
*343 _109_
*344 _110_
*345 _111_
*346 _112_
*347 _113_
*348 _114_
*349 _115_
*350 net1
*351 net10
*352 net100
*353 net101
*354 net102
*355 net103
*356 net104
*357 net105
*358 net11
*359 net12
*360 net13
*361 net14
*362 net15
*363 net16
*364 net17
*365 net18
*366 net19
*367 net2
*368 net20
*369 net21
*370 net22
*371 net23
*372 net24
*373 net25
*374 net26
*375 net27
*376 net28
*377 net29
*378 net3
*379 net30
*380 net31
*381 net32
*382 net33
*383 net34
*384 net35
*385 net36
*386 net37
*387 net38
*388 net39
*389 net4
*390 net40
*391 net41
*392 net42
*393 net43
*394 net44
*395 net45
*396 net46
*397 net47
*398 net48
*399 net49
*400 net5
*401 net50
*402 net51
*403 net52
*404 net53
*405 net54
*406 net55
*407 net56
*408 net57
*409 net58
*410 net59
*411 net6
*412 net60
*413 net61
*414 net62
*415 net63
*416 net64
*417 net65
*418 net66
*419 net67
*420 net68
*421 net69
*422 net7
*423 net70
*424 net71
*425 net72
*426 net73
*427 net74
*428 net75
*429 net76
*430 net77
*431 net78
*432 net79
*433 net8
*434 net80
*435 net81
*436 net82
*437 net83
*438 net84
*439 net85
*440 net86
*441 net87
*442 net88
*443 net89
*444 net9
*445 net90
*446 net91
*447 net92
*448 net93
*449 net94
*450 net95
*451 net96
*452 net97
*453 net98
*454 net99
*455 wbFlashInterface\.currentAddress\[10\]
*456 wbFlashInterface\.currentAddress\[11\]
*457 wbFlashInterface\.currentAddress\[12\]
*458 wbFlashInterface\.currentAddress\[13\]
*459 wbFlashInterface\.currentAddress\[14\]
*460 wbFlashInterface\.currentAddress\[15\]
*461 wbFlashInterface\.currentAddress\[16\]
*462 wbFlashInterface\.currentAddress\[17\]
*463 wbFlashInterface\.currentAddress\[18\]
*464 wbFlashInterface\.currentAddress\[19\]
*465 wbFlashInterface\.currentAddress\[20\]
*466 wbFlashInterface\.currentAddress\[21\]
*467 wbFlashInterface\.currentAddress\[22\]
*468 wbFlashInterface\.currentAddress\[23\]
*469 wbFlashInterface\.currentAddress\[2\]
*470 wbFlashInterface\.currentAddress\[3\]
*471 wbFlashInterface\.currentAddress\[4\]
*472 wbFlashInterface\.currentAddress\[5\]
*473 wbFlashInterface\.currentAddress\[6\]
*474 wbFlashInterface\.currentAddress\[7\]
*475 wbFlashInterface\.currentAddress\[8\]
*476 wbFlashInterface\.currentAddress\[9\]
*477 wbFlashInterface\.state\[0\]
*478 wbFlashInterface\.state\[1\]
*479 FILLER_0_101
*480 FILLER_0_108
*481 FILLER_0_113
*482 FILLER_0_117
*483 FILLER_0_122
*484 FILLER_0_129
*485 FILLER_0_136
*486 FILLER_0_141
*487 FILLER_0_146
*488 FILLER_0_15
*489 FILLER_0_154
*490 FILLER_0_160
*491 FILLER_0_164
*492 FILLER_0_172
*493 FILLER_0_180
*494 FILLER_0_188
*495 FILLER_0_192
*496 FILLER_0_197
*497 FILLER_0_207
*498 FILLER_0_215
*499 FILLER_0_220
*500 FILLER_0_225
*501 FILLER_0_23
*502 FILLER_0_233
*503 FILLER_0_240
*504 FILLER_0_244
*505 FILLER_0_248
*506 FILLER_0_253
*507 FILLER_0_260
*508 FILLER_0_269
*509 FILLER_0_27
*510 FILLER_0_276
*511 FILLER_0_281
*512 FILLER_0_297
*513 FILLER_0_304
*514 FILLER_0_312
*515 FILLER_0_318
*516 FILLER_0_329
*517 FILLER_0_33
*518 FILLER_0_335
*519 FILLER_0_347
*520 FILLER_0_355
*521 FILLER_0_359
*522 FILLER_0_363
*523 FILLER_0_365
*524 FILLER_0_373
*525 FILLER_0_381
*526 FILLER_0_387
*527 FILLER_0_391
*528 FILLER_0_393
*529 FILLER_0_403
*530 FILLER_0_41
*531 FILLER_0_410
*532 FILLER_0_418
*533 FILLER_0_425
*534 FILLER_0_429
*535 FILLER_0_434
*536 FILLER_0_441
*537 FILLER_0_447
*538 FILLER_0_45
*539 FILLER_0_453
*540 FILLER_0_461
*541 FILLER_0_468
*542 FILLER_0_477
*543 FILLER_0_487
*544 FILLER_0_493
*545 FILLER_0_500
*546 FILLER_0_505
*547 FILLER_0_509
*548 FILLER_0_516
*549 FILLER_0_52
*550 FILLER_0_523
*551 FILLER_0_531
*552 FILLER_0_533
*553 FILLER_0_543
*554 FILLER_0_551
*555 FILLER_0_559
*556 FILLER_0_565
*557 FILLER_0_573
*558 FILLER_0_580
*559 FILLER_0_589
*560 FILLER_0_599
*561 FILLER_0_61
*562 FILLER_0_611
*563 FILLER_0_615
*564 FILLER_0_620
*565 FILLER_0_624
*566 FILLER_0_69
*567 FILLER_0_73
*568 FILLER_0_80
*569 FILLER_0_85
*570 FILLER_0_90
*571 FILLER_10_106
*572 FILLER_10_115
*573 FILLER_10_123
*574 FILLER_10_135
*575 FILLER_10_139
*576 FILLER_10_144
*577 FILLER_10_156
*578 FILLER_10_164
*579 FILLER_10_168
*580 FILLER_10_180
*581 FILLER_10_192
*582 FILLER_10_200
*583 FILLER_10_21
*584 FILLER_10_212
*585 FILLER_10_224
*586 FILLER_10_236
*587 FILLER_10_248
*588 FILLER_10_253
*589 FILLER_10_265
*590 FILLER_10_27
*591 FILLER_10_277
*592 FILLER_10_289
*593 FILLER_10_29
*594 FILLER_10_301
*595 FILLER_10_307
*596 FILLER_10_309
*597 FILLER_10_321
*598 FILLER_10_333
*599 FILLER_10_345
*600 FILLER_10_357
*601 FILLER_10_363
*602 FILLER_10_365
*603 FILLER_10_37
*604 FILLER_10_377
*605 FILLER_10_389
*606 FILLER_10_401
*607 FILLER_10_413
*608 FILLER_10_419
*609 FILLER_10_421
*610 FILLER_10_433
*611 FILLER_10_445
*612 FILLER_10_457
*613 FILLER_10_469
*614 FILLER_10_475
*615 FILLER_10_477
*616 FILLER_10_489
*617 FILLER_10_501
*618 FILLER_10_513
*619 FILLER_10_525
*620 FILLER_10_531
*621 FILLER_10_533
*622 FILLER_10_54
*623 FILLER_10_545
*624 FILLER_10_557
*625 FILLER_10_569
*626 FILLER_10_581
*627 FILLER_10_587
*628 FILLER_10_589
*629 FILLER_10_6
*630 FILLER_10_601
*631 FILLER_10_613
*632 FILLER_10_66
*633 FILLER_10_71
*634 FILLER_10_80
*635 FILLER_10_88
*636 FILLER_10_98
*637 FILLER_11_101
*638 FILLER_11_108
*639 FILLER_11_117
*640 FILLER_11_129
*641 FILLER_11_141
*642 FILLER_11_153
*643 FILLER_11_165
*644 FILLER_11_169
*645 FILLER_11_181
*646 FILLER_11_193
*647 FILLER_11_205
*648 FILLER_11_217
*649 FILLER_11_223
*650 FILLER_11_225
*651 FILLER_11_23
*652 FILLER_11_237
*653 FILLER_11_249
*654 FILLER_11_261
*655 FILLER_11_273
*656 FILLER_11_279
*657 FILLER_11_281
*658 FILLER_11_293
*659 FILLER_11_3
*660 FILLER_11_305
*661 FILLER_11_317
*662 FILLER_11_329
*663 FILLER_11_335
*664 FILLER_11_337
*665 FILLER_11_349
*666 FILLER_11_35
*667 FILLER_11_361
*668 FILLER_11_373
*669 FILLER_11_385
*670 FILLER_11_391
*671 FILLER_11_393
*672 FILLER_11_405
*673 FILLER_11_417
*674 FILLER_11_429
*675 FILLER_11_441
*676 FILLER_11_447
*677 FILLER_11_449
*678 FILLER_11_45
*679 FILLER_11_461
*680 FILLER_11_473
*681 FILLER_11_485
*682 FILLER_11_497
*683 FILLER_11_503
*684 FILLER_11_505
*685 FILLER_11_517
*686 FILLER_11_529
*687 FILLER_11_53
*688 FILLER_11_541
*689 FILLER_11_553
*690 FILLER_11_559
*691 FILLER_11_561
*692 FILLER_11_57
*693 FILLER_11_573
*694 FILLER_11_585
*695 FILLER_11_597
*696 FILLER_11_609
*697 FILLER_11_615
*698 FILLER_11_617
*699 FILLER_11_65
*700 FILLER_11_71
*701 FILLER_11_80
*702 FILLER_11_89
*703 FILLER_12_105
*704 FILLER_12_11
*705 FILLER_12_111
*706 FILLER_12_123
*707 FILLER_12_135
*708 FILLER_12_139
*709 FILLER_12_141
*710 FILLER_12_15
*711 FILLER_12_153
*712 FILLER_12_165
*713 FILLER_12_177
*714 FILLER_12_189
*715 FILLER_12_195
*716 FILLER_12_197
*717 FILLER_12_209
*718 FILLER_12_221
*719 FILLER_12_233
*720 FILLER_12_245
*721 FILLER_12_251
*722 FILLER_12_253
*723 FILLER_12_265
*724 FILLER_12_27
*725 FILLER_12_277
*726 FILLER_12_289
*727 FILLER_12_29
*728 FILLER_12_301
*729 FILLER_12_307
*730 FILLER_12_309
*731 FILLER_12_321
*732 FILLER_12_333
*733 FILLER_12_345
*734 FILLER_12_357
*735 FILLER_12_363
*736 FILLER_12_365
*737 FILLER_12_377
*738 FILLER_12_389
*739 FILLER_12_401
*740 FILLER_12_413
*741 FILLER_12_419
*742 FILLER_12_421
*743 FILLER_12_433
*744 FILLER_12_44
*745 FILLER_12_445
*746 FILLER_12_457
*747 FILLER_12_469
*748 FILLER_12_475
*749 FILLER_12_477
*750 FILLER_12_489
*751 FILLER_12_501
*752 FILLER_12_513
*753 FILLER_12_525
*754 FILLER_12_531
*755 FILLER_12_533
*756 FILLER_12_545
*757 FILLER_12_557
*758 FILLER_12_56
*759 FILLER_12_569
*760 FILLER_12_581
*761 FILLER_12_587
*762 FILLER_12_589
*763 FILLER_12_601
*764 FILLER_12_613
*765 FILLER_12_68
*766 FILLER_12_7
*767 FILLER_12_74
*768 FILLER_12_80
*769 FILLER_12_85
*770 FILLER_12_97
*771 FILLER_13_105
*772 FILLER_13_111
*773 FILLER_13_113
*774 FILLER_13_125
*775 FILLER_13_137
*776 FILLER_13_149
*777 FILLER_13_161
*778 FILLER_13_167
*779 FILLER_13_169
*780 FILLER_13_18
*781 FILLER_13_181
*782 FILLER_13_193
*783 FILLER_13_205
*784 FILLER_13_217
*785 FILLER_13_223
*786 FILLER_13_225
*787 FILLER_13_237
*788 FILLER_13_249
*789 FILLER_13_261
*790 FILLER_13_273
*791 FILLER_13_279
*792 FILLER_13_281
*793 FILLER_13_293
*794 FILLER_13_30
*795 FILLER_13_305
*796 FILLER_13_317
*797 FILLER_13_329
*798 FILLER_13_335
*799 FILLER_13_337
*800 FILLER_13_349
*801 FILLER_13_361
*802 FILLER_13_373
*803 FILLER_13_385
*804 FILLER_13_391
*805 FILLER_13_393
*806 FILLER_13_405
*807 FILLER_13_417
*808 FILLER_13_429
*809 FILLER_13_441
*810 FILLER_13_447
*811 FILLER_13_449
*812 FILLER_13_461
*813 FILLER_13_473
*814 FILLER_13_485
*815 FILLER_13_497
*816 FILLER_13_503
*817 FILLER_13_505
*818 FILLER_13_517
*819 FILLER_13_52
*820 FILLER_13_529
*821 FILLER_13_541
*822 FILLER_13_553
*823 FILLER_13_559
*824 FILLER_13_561
*825 FILLER_13_57
*826 FILLER_13_573
*827 FILLER_13_585
*828 FILLER_13_597
*829 FILLER_13_6
*830 FILLER_13_609
*831 FILLER_13_615
*832 FILLER_13_617
*833 FILLER_13_69
*834 FILLER_13_81
*835 FILLER_13_93
*836 FILLER_14_100
*837 FILLER_14_112
*838 FILLER_14_124
*839 FILLER_14_136
*840 FILLER_14_141
*841 FILLER_14_153
*842 FILLER_14_165
*843 FILLER_14_177
*844 FILLER_14_189
*845 FILLER_14_195
*846 FILLER_14_197
*847 FILLER_14_209
*848 FILLER_14_22
*849 FILLER_14_221
*850 FILLER_14_233
*851 FILLER_14_245
*852 FILLER_14_251
*853 FILLER_14_253
*854 FILLER_14_265
*855 FILLER_14_277
*856 FILLER_14_289
*857 FILLER_14_29
*858 FILLER_14_301
*859 FILLER_14_307
*860 FILLER_14_309
*861 FILLER_14_321
*862 FILLER_14_333
*863 FILLER_14_345
*864 FILLER_14_357
*865 FILLER_14_363
*866 FILLER_14_365
*867 FILLER_14_37
*868 FILLER_14_377
*869 FILLER_14_389
*870 FILLER_14_401
*871 FILLER_14_413
*872 FILLER_14_419
*873 FILLER_14_42
*874 FILLER_14_421
*875 FILLER_14_433
*876 FILLER_14_445
*877 FILLER_14_457
*878 FILLER_14_469
*879 FILLER_14_475
*880 FILLER_14_477
*881 FILLER_14_489
*882 FILLER_14_501
*883 FILLER_14_513
*884 FILLER_14_525
*885 FILLER_14_531
*886 FILLER_14_533
*887 FILLER_14_54
*888 FILLER_14_545
*889 FILLER_14_557
*890 FILLER_14_569
*891 FILLER_14_581
*892 FILLER_14_587
*893 FILLER_14_589
*894 FILLER_14_601
*895 FILLER_14_613
*896 FILLER_14_66
*897 FILLER_14_7
*898 FILLER_14_78
*899 FILLER_14_88
*900 FILLER_15_105
*901 FILLER_15_111
*902 FILLER_15_113
*903 FILLER_15_125
*904 FILLER_15_137
*905 FILLER_15_149
*906 FILLER_15_161
*907 FILLER_15_167
*908 FILLER_15_169
*909 FILLER_15_181
*910 FILLER_15_193
*911 FILLER_15_205
*912 FILLER_15_217
*913 FILLER_15_223
*914 FILLER_15_225
*915 FILLER_15_237
*916 FILLER_15_249
*917 FILLER_15_26
*918 FILLER_15_261
*919 FILLER_15_273
*920 FILLER_15_279
*921 FILLER_15_281
*922 FILLER_15_293
*923 FILLER_15_3
*924 FILLER_15_305
*925 FILLER_15_317
*926 FILLER_15_329
*927 FILLER_15_335
*928 FILLER_15_337
*929 FILLER_15_349
*930 FILLER_15_361
*931 FILLER_15_373
*932 FILLER_15_38
*933 FILLER_15_385
*934 FILLER_15_391
*935 FILLER_15_393
*936 FILLER_15_405
*937 FILLER_15_417
*938 FILLER_15_429
*939 FILLER_15_441
*940 FILLER_15_447
*941 FILLER_15_449
*942 FILLER_15_461
*943 FILLER_15_473
*944 FILLER_15_485
*945 FILLER_15_497
*946 FILLER_15_50
*947 FILLER_15_503
*948 FILLER_15_505
*949 FILLER_15_517
*950 FILLER_15_529
*951 FILLER_15_541
*952 FILLER_15_553
*953 FILLER_15_559
*954 FILLER_15_561
*955 FILLER_15_57
*956 FILLER_15_573
*957 FILLER_15_585
*958 FILLER_15_597
*959 FILLER_15_609
*960 FILLER_15_615
*961 FILLER_15_617
*962 FILLER_15_69
*963 FILLER_15_81
*964 FILLER_15_9
*965 FILLER_15_93
*966 FILLER_16_109
*967 FILLER_16_121
*968 FILLER_16_133
*969 FILLER_16_139
*970 FILLER_16_141
*971 FILLER_16_15
*972 FILLER_16_153
*973 FILLER_16_165
*974 FILLER_16_177
*975 FILLER_16_189
*976 FILLER_16_195
*977 FILLER_16_197
*978 FILLER_16_209
*979 FILLER_16_221
*980 FILLER_16_233
*981 FILLER_16_245
*982 FILLER_16_251
*983 FILLER_16_253
*984 FILLER_16_265
*985 FILLER_16_27
*986 FILLER_16_277
*987 FILLER_16_289
*988 FILLER_16_301
*989 FILLER_16_307
*990 FILLER_16_309
*991 FILLER_16_321
*992 FILLER_16_333
*993 FILLER_16_345
*994 FILLER_16_357
*995 FILLER_16_363
*996 FILLER_16_365
*997 FILLER_16_377
*998 FILLER_16_38
*999 FILLER_16_389
*1000 FILLER_16_401
*1001 FILLER_16_413
*1002 FILLER_16_419
*1003 FILLER_16_421
*1004 FILLER_16_433
*1005 FILLER_16_445
*1006 FILLER_16_457
*1007 FILLER_16_469
*1008 FILLER_16_475
*1009 FILLER_16_477
*1010 FILLER_16_489
*1011 FILLER_16_50
*1012 FILLER_16_501
*1013 FILLER_16_513
*1014 FILLER_16_525
*1015 FILLER_16_531
*1016 FILLER_16_533
*1017 FILLER_16_545
*1018 FILLER_16_557
*1019 FILLER_16_569
*1020 FILLER_16_581
*1021 FILLER_16_587
*1022 FILLER_16_589
*1023 FILLER_16_6
*1024 FILLER_16_601
*1025 FILLER_16_613
*1026 FILLER_16_62
*1027 FILLER_16_74
*1028 FILLER_16_82
*1029 FILLER_16_85
*1030 FILLER_16_97
*1031 FILLER_17_105
*1032 FILLER_17_111
*1033 FILLER_17_113
*1034 FILLER_17_125
*1035 FILLER_17_137
*1036 FILLER_17_149
*1037 FILLER_17_161
*1038 FILLER_17_167
*1039 FILLER_17_169
*1040 FILLER_17_18
*1041 FILLER_17_181
*1042 FILLER_17_193
*1043 FILLER_17_205
*1044 FILLER_17_217
*1045 FILLER_17_223
*1046 FILLER_17_225
*1047 FILLER_17_237
*1048 FILLER_17_249
*1049 FILLER_17_25
*1050 FILLER_17_261
*1051 FILLER_17_273
*1052 FILLER_17_279
*1053 FILLER_17_281
*1054 FILLER_17_293
*1055 FILLER_17_305
*1056 FILLER_17_317
*1057 FILLER_17_329
*1058 FILLER_17_335
*1059 FILLER_17_337
*1060 FILLER_17_349
*1061 FILLER_17_361
*1062 FILLER_17_373
*1063 FILLER_17_385
*1064 FILLER_17_391
*1065 FILLER_17_393
*1066 FILLER_17_405
*1067 FILLER_17_417
*1068 FILLER_17_429
*1069 FILLER_17_441
*1070 FILLER_17_447
*1071 FILLER_17_449
*1072 FILLER_17_45
*1073 FILLER_17_461
*1074 FILLER_17_473
*1075 FILLER_17_485
*1076 FILLER_17_497
*1077 FILLER_17_503
*1078 FILLER_17_505
*1079 FILLER_17_517
*1080 FILLER_17_529
*1081 FILLER_17_53
*1082 FILLER_17_541
*1083 FILLER_17_553
*1084 FILLER_17_559
*1085 FILLER_17_561
*1086 FILLER_17_57
*1087 FILLER_17_573
*1088 FILLER_17_585
*1089 FILLER_17_597
*1090 FILLER_17_6
*1091 FILLER_17_609
*1092 FILLER_17_615
*1093 FILLER_17_617
*1094 FILLER_17_69
*1095 FILLER_17_81
*1096 FILLER_17_93
*1097 FILLER_18_109
*1098 FILLER_18_11
*1099 FILLER_18_121
*1100 FILLER_18_133
*1101 FILLER_18_139
*1102 FILLER_18_141
*1103 FILLER_18_15
*1104 FILLER_18_153
*1105 FILLER_18_165
*1106 FILLER_18_177
*1107 FILLER_18_189
*1108 FILLER_18_195
*1109 FILLER_18_197
*1110 FILLER_18_209
*1111 FILLER_18_221
*1112 FILLER_18_233
*1113 FILLER_18_245
*1114 FILLER_18_251
*1115 FILLER_18_253
*1116 FILLER_18_265
*1117 FILLER_18_27
*1118 FILLER_18_277
*1119 FILLER_18_289
*1120 FILLER_18_29
*1121 FILLER_18_301
*1122 FILLER_18_307
*1123 FILLER_18_309
*1124 FILLER_18_321
*1125 FILLER_18_333
*1126 FILLER_18_345
*1127 FILLER_18_357
*1128 FILLER_18_363
*1129 FILLER_18_365
*1130 FILLER_18_37
*1131 FILLER_18_377
*1132 FILLER_18_389
*1133 FILLER_18_401
*1134 FILLER_18_413
*1135 FILLER_18_419
*1136 FILLER_18_421
*1137 FILLER_18_433
*1138 FILLER_18_445
*1139 FILLER_18_457
*1140 FILLER_18_469
*1141 FILLER_18_475
*1142 FILLER_18_477
*1143 FILLER_18_489
*1144 FILLER_18_49
*1145 FILLER_18_501
*1146 FILLER_18_513
*1147 FILLER_18_525
*1148 FILLER_18_531
*1149 FILLER_18_533
*1150 FILLER_18_545
*1151 FILLER_18_557
*1152 FILLER_18_569
*1153 FILLER_18_581
*1154 FILLER_18_587
*1155 FILLER_18_589
*1156 FILLER_18_601
*1157 FILLER_18_61
*1158 FILLER_18_613
*1159 FILLER_18_7
*1160 FILLER_18_73
*1161 FILLER_18_81
*1162 FILLER_18_85
*1163 FILLER_18_97
*1164 FILLER_19_105
*1165 FILLER_19_111
*1166 FILLER_19_113
*1167 FILLER_19_125
*1168 FILLER_19_137
*1169 FILLER_19_149
*1170 FILLER_19_161
*1171 FILLER_19_167
*1172 FILLER_19_169
*1173 FILLER_19_181
*1174 FILLER_19_193
*1175 FILLER_19_205
*1176 FILLER_19_217
*1177 FILLER_19_223
*1178 FILLER_19_225
*1179 FILLER_19_237
*1180 FILLER_19_24
*1181 FILLER_19_249
*1182 FILLER_19_261
*1183 FILLER_19_273
*1184 FILLER_19_279
*1185 FILLER_19_281
*1186 FILLER_19_293
*1187 FILLER_19_3
*1188 FILLER_19_305
*1189 FILLER_19_317
*1190 FILLER_19_329
*1191 FILLER_19_335
*1192 FILLER_19_337
*1193 FILLER_19_349
*1194 FILLER_19_36
*1195 FILLER_19_361
*1196 FILLER_19_373
*1197 FILLER_19_385
*1198 FILLER_19_391
*1199 FILLER_19_393
*1200 FILLER_19_405
*1201 FILLER_19_417
*1202 FILLER_19_429
*1203 FILLER_19_441
*1204 FILLER_19_447
*1205 FILLER_19_449
*1206 FILLER_19_461
*1207 FILLER_19_473
*1208 FILLER_19_48
*1209 FILLER_19_485
*1210 FILLER_19_497
*1211 FILLER_19_503
*1212 FILLER_19_505
*1213 FILLER_19_517
*1214 FILLER_19_529
*1215 FILLER_19_541
*1216 FILLER_19_553
*1217 FILLER_19_559
*1218 FILLER_19_561
*1219 FILLER_19_57
*1220 FILLER_19_573
*1221 FILLER_19_585
*1222 FILLER_19_597
*1223 FILLER_19_609
*1224 FILLER_19_615
*1225 FILLER_19_617
*1226 FILLER_19_69
*1227 FILLER_19_7
*1228 FILLER_19_81
*1229 FILLER_19_93
*1230 FILLER_1_10
*1231 FILLER_1_101
*1232 FILLER_1_105
*1233 FILLER_1_111
*1234 FILLER_1_113
*1235 FILLER_1_124
*1236 FILLER_1_136
*1237 FILLER_1_142
*1238 FILLER_1_154
*1239 FILLER_1_158
*1240 FILLER_1_166
*1241 FILLER_1_169
*1242 FILLER_1_18
*1243 FILLER_1_184
*1244 FILLER_1_196
*1245 FILLER_1_200
*1246 FILLER_1_211
*1247 FILLER_1_220
*1248 FILLER_1_228
*1249 FILLER_1_240
*1250 FILLER_1_244
*1251 FILLER_1_248
*1252 FILLER_1_260
*1253 FILLER_1_264
*1254 FILLER_1_276
*1255 FILLER_1_281
*1256 FILLER_1_293
*1257 FILLER_1_3
*1258 FILLER_1_301
*1259 FILLER_1_313
*1260 FILLER_1_321
*1261 FILLER_1_327
*1262 FILLER_1_335
*1263 FILLER_1_337
*1264 FILLER_1_343
*1265 FILLER_1_361
*1266 FILLER_1_373
*1267 FILLER_1_378
*1268 FILLER_1_390
*1269 FILLER_1_396
*1270 FILLER_1_408
*1271 FILLER_1_42
*1272 FILLER_1_423
*1273 FILLER_1_435
*1274 FILLER_1_447
*1275 FILLER_1_449
*1276 FILLER_1_455
*1277 FILLER_1_467
*1278 FILLER_1_471
*1279 FILLER_1_48
*1280 FILLER_1_486
*1281 FILLER_1_498
*1282 FILLER_1_508
*1283 FILLER_1_52
*1284 FILLER_1_520
*1285 FILLER_1_528
*1286 FILLER_1_534
*1287 FILLER_1_546
*1288 FILLER_1_550
*1289 FILLER_1_554
*1290 FILLER_1_561
*1291 FILLER_1_566
*1292 FILLER_1_57
*1293 FILLER_1_578
*1294 FILLER_1_582
*1295 FILLER_1_594
*1296 FILLER_1_598
*1297 FILLER_1_612
*1298 FILLER_1_617
*1299 FILLER_1_62
*1300 FILLER_1_621
*1301 FILLER_1_71
*1302 FILLER_1_79
*1303 FILLER_1_84
*1304 FILLER_1_93
*1305 FILLER_20_109
*1306 FILLER_20_11
*1307 FILLER_20_121
*1308 FILLER_20_133
*1309 FILLER_20_139
*1310 FILLER_20_141
*1311 FILLER_20_153
*1312 FILLER_20_165
*1313 FILLER_20_177
*1314 FILLER_20_189
*1315 FILLER_20_195
*1316 FILLER_20_197
*1317 FILLER_20_209
*1318 FILLER_20_21
*1319 FILLER_20_221
*1320 FILLER_20_233
*1321 FILLER_20_245
*1322 FILLER_20_251
*1323 FILLER_20_253
*1324 FILLER_20_265
*1325 FILLER_20_27
*1326 FILLER_20_277
*1327 FILLER_20_289
*1328 FILLER_20_301
*1329 FILLER_20_307
*1330 FILLER_20_309
*1331 FILLER_20_321
*1332 FILLER_20_333
*1333 FILLER_20_345
*1334 FILLER_20_357
*1335 FILLER_20_363
*1336 FILLER_20_365
*1337 FILLER_20_377
*1338 FILLER_20_38
*1339 FILLER_20_389
*1340 FILLER_20_401
*1341 FILLER_20_413
*1342 FILLER_20_419
*1343 FILLER_20_421
*1344 FILLER_20_433
*1345 FILLER_20_445
*1346 FILLER_20_457
*1347 FILLER_20_469
*1348 FILLER_20_475
*1349 FILLER_20_477
*1350 FILLER_20_489
*1351 FILLER_20_50
*1352 FILLER_20_501
*1353 FILLER_20_513
*1354 FILLER_20_525
*1355 FILLER_20_531
*1356 FILLER_20_533
*1357 FILLER_20_545
*1358 FILLER_20_557
*1359 FILLER_20_569
*1360 FILLER_20_581
*1361 FILLER_20_587
*1362 FILLER_20_589
*1363 FILLER_20_601
*1364 FILLER_20_613
*1365 FILLER_20_62
*1366 FILLER_20_7
*1367 FILLER_20_74
*1368 FILLER_20_82
*1369 FILLER_20_85
*1370 FILLER_20_97
*1371 FILLER_21_107
*1372 FILLER_21_111
*1373 FILLER_21_113
*1374 FILLER_21_125
*1375 FILLER_21_13
*1376 FILLER_21_137
*1377 FILLER_21_149
*1378 FILLER_21_161
*1379 FILLER_21_167
*1380 FILLER_21_169
*1381 FILLER_21_181
*1382 FILLER_21_193
*1383 FILLER_21_205
*1384 FILLER_21_217
*1385 FILLER_21_223
*1386 FILLER_21_225
*1387 FILLER_21_237
*1388 FILLER_21_249
*1389 FILLER_21_25
*1390 FILLER_21_261
*1391 FILLER_21_273
*1392 FILLER_21_279
*1393 FILLER_21_281
*1394 FILLER_21_293
*1395 FILLER_21_305
*1396 FILLER_21_317
*1397 FILLER_21_32
*1398 FILLER_21_329
*1399 FILLER_21_335
*1400 FILLER_21_337
*1401 FILLER_21_349
*1402 FILLER_21_361
*1403 FILLER_21_373
*1404 FILLER_21_385
*1405 FILLER_21_391
*1406 FILLER_21_393
*1407 FILLER_21_405
*1408 FILLER_21_417
*1409 FILLER_21_429
*1410 FILLER_21_441
*1411 FILLER_21_447
*1412 FILLER_21_449
*1413 FILLER_21_461
*1414 FILLER_21_473
*1415 FILLER_21_485
*1416 FILLER_21_497
*1417 FILLER_21_503
*1418 FILLER_21_505
*1419 FILLER_21_517
*1420 FILLER_21_52
*1421 FILLER_21_529
*1422 FILLER_21_541
*1423 FILLER_21_553
*1424 FILLER_21_559
*1425 FILLER_21_561
*1426 FILLER_21_57
*1427 FILLER_21_573
*1428 FILLER_21_585
*1429 FILLER_21_597
*1430 FILLER_21_6
*1431 FILLER_21_609
*1432 FILLER_21_615
*1433 FILLER_21_617
*1434 FILLER_21_65
*1435 FILLER_21_71
*1436 FILLER_21_83
*1437 FILLER_21_95
*1438 FILLER_22_101
*1439 FILLER_22_11
*1440 FILLER_22_113
*1441 FILLER_22_125
*1442 FILLER_22_129
*1443 FILLER_22_133
*1444 FILLER_22_139
*1445 FILLER_22_141
*1446 FILLER_22_153
*1447 FILLER_22_165
*1448 FILLER_22_177
*1449 FILLER_22_189
*1450 FILLER_22_195
*1451 FILLER_22_197
*1452 FILLER_22_209
*1453 FILLER_22_21
*1454 FILLER_22_221
*1455 FILLER_22_233
*1456 FILLER_22_245
*1457 FILLER_22_251
*1458 FILLER_22_253
*1459 FILLER_22_265
*1460 FILLER_22_27
*1461 FILLER_22_277
*1462 FILLER_22_289
*1463 FILLER_22_29
*1464 FILLER_22_301
*1465 FILLER_22_307
*1466 FILLER_22_309
*1467 FILLER_22_321
*1468 FILLER_22_33
*1469 FILLER_22_333
*1470 FILLER_22_345
*1471 FILLER_22_357
*1472 FILLER_22_363
*1473 FILLER_22_365
*1474 FILLER_22_37
*1475 FILLER_22_377
*1476 FILLER_22_389
*1477 FILLER_22_401
*1478 FILLER_22_413
*1479 FILLER_22_419
*1480 FILLER_22_421
*1481 FILLER_22_433
*1482 FILLER_22_445
*1483 FILLER_22_457
*1484 FILLER_22_469
*1485 FILLER_22_475
*1486 FILLER_22_477
*1487 FILLER_22_489
*1488 FILLER_22_49
*1489 FILLER_22_501
*1490 FILLER_22_513
*1491 FILLER_22_525
*1492 FILLER_22_531
*1493 FILLER_22_533
*1494 FILLER_22_545
*1495 FILLER_22_557
*1496 FILLER_22_569
*1497 FILLER_22_581
*1498 FILLER_22_587
*1499 FILLER_22_589
*1500 FILLER_22_60
*1501 FILLER_22_601
*1502 FILLER_22_613
*1503 FILLER_22_64
*1504 FILLER_22_7
*1505 FILLER_22_71
*1506 FILLER_22_80
*1507 FILLER_22_85
*1508 FILLER_22_89
*1509 FILLER_23_101
*1510 FILLER_23_109
*1511 FILLER_23_113
*1512 FILLER_23_125
*1513 FILLER_23_137
*1514 FILLER_23_149
*1515 FILLER_23_161
*1516 FILLER_23_167
*1517 FILLER_23_169
*1518 FILLER_23_181
*1519 FILLER_23_193
*1520 FILLER_23_205
*1521 FILLER_23_217
*1522 FILLER_23_223
*1523 FILLER_23_225
*1524 FILLER_23_237
*1525 FILLER_23_249
*1526 FILLER_23_25
*1527 FILLER_23_261
*1528 FILLER_23_273
*1529 FILLER_23_279
*1530 FILLER_23_281
*1531 FILLER_23_293
*1532 FILLER_23_3
*1533 FILLER_23_305
*1534 FILLER_23_317
*1535 FILLER_23_329
*1536 FILLER_23_335
*1537 FILLER_23_337
*1538 FILLER_23_349
*1539 FILLER_23_361
*1540 FILLER_23_37
*1541 FILLER_23_373
*1542 FILLER_23_385
*1543 FILLER_23_391
*1544 FILLER_23_393
*1545 FILLER_23_405
*1546 FILLER_23_417
*1547 FILLER_23_429
*1548 FILLER_23_441
*1549 FILLER_23_447
*1550 FILLER_23_449
*1551 FILLER_23_461
*1552 FILLER_23_473
*1553 FILLER_23_485
*1554 FILLER_23_49
*1555 FILLER_23_497
*1556 FILLER_23_503
*1557 FILLER_23_505
*1558 FILLER_23_517
*1559 FILLER_23_529
*1560 FILLER_23_541
*1561 FILLER_23_55
*1562 FILLER_23_553
*1563 FILLER_23_559
*1564 FILLER_23_561
*1565 FILLER_23_57
*1566 FILLER_23_573
*1567 FILLER_23_585
*1568 FILLER_23_597
*1569 FILLER_23_609
*1570 FILLER_23_615
*1571 FILLER_23_617
*1572 FILLER_23_70
*1573 FILLER_23_77
*1574 FILLER_23_89
*1575 FILLER_24_104
*1576 FILLER_24_11
*1577 FILLER_24_116
*1578 FILLER_24_128
*1579 FILLER_24_141
*1580 FILLER_24_15
*1581 FILLER_24_153
*1582 FILLER_24_165
*1583 FILLER_24_177
*1584 FILLER_24_189
*1585 FILLER_24_195
*1586 FILLER_24_197
*1587 FILLER_24_209
*1588 FILLER_24_221
*1589 FILLER_24_233
*1590 FILLER_24_245
*1591 FILLER_24_251
*1592 FILLER_24_253
*1593 FILLER_24_265
*1594 FILLER_24_27
*1595 FILLER_24_277
*1596 FILLER_24_289
*1597 FILLER_24_301
*1598 FILLER_24_307
*1599 FILLER_24_309
*1600 FILLER_24_32
*1601 FILLER_24_321
*1602 FILLER_24_333
*1603 FILLER_24_345
*1604 FILLER_24_357
*1605 FILLER_24_363
*1606 FILLER_24_365
*1607 FILLER_24_377
*1608 FILLER_24_389
*1609 FILLER_24_401
*1610 FILLER_24_413
*1611 FILLER_24_419
*1612 FILLER_24_421
*1613 FILLER_24_433
*1614 FILLER_24_44
*1615 FILLER_24_445
*1616 FILLER_24_457
*1617 FILLER_24_469
*1618 FILLER_24_475
*1619 FILLER_24_477
*1620 FILLER_24_489
*1621 FILLER_24_501
*1622 FILLER_24_513
*1623 FILLER_24_525
*1624 FILLER_24_531
*1625 FILLER_24_533
*1626 FILLER_24_545
*1627 FILLER_24_557
*1628 FILLER_24_56
*1629 FILLER_24_569
*1630 FILLER_24_581
*1631 FILLER_24_587
*1632 FILLER_24_589
*1633 FILLER_24_601
*1634 FILLER_24_613
*1635 FILLER_24_68
*1636 FILLER_24_7
*1637 FILLER_24_80
*1638 FILLER_24_85
*1639 FILLER_24_91
*1640 FILLER_24_95
*1641 FILLER_25_103
*1642 FILLER_25_111