*SPEF "ieee 1481-1999"
*DESIGN "Flash"
*DATE "11:11:11 Fri 11 11, 1111"
*VENDOR "OpenRCX"
*PROGRAM "Parallel Extraction"
*VERSION "1.0"
*DESIGN_FLOW "NAME_SCOPE LOCAL" "PIN_CAP NONE"
*DIVIDER /
*DELIMITER :
*BUS_DELIMITER []
*T_UNIT 1 NS
*C_UNIT 1 PF
*R_UNIT 1 OHM
*L_UNIT 1 HENRY

*NAME_MAP
*1 net111
*2 flash_io0_read
*3 net158
*4 net112
*5 flash_io1_read
*6 net113
*7 net114
*8 net115
*9 net116
*10 net117
*11 net118
*12 net119
*13 net120
*14 net121
*15 net122
*16 net123
*17 net124
*18 sram_addr1[0]
*19 sram_addr1[1]
*20 sram_addr1[2]
*21 sram_addr1[3]
*22 sram_addr1[4]
*23 sram_addr1[5]
*24 sram_addr1[6]
*25 sram_addr1[7]
*26 sram_addr1[8]
*27 sram_clk0
*28 sram_clk1
*29 net159
*30 sram_csb1
*31 net125
*32 net135
*33 net136
*34 net137
*35 net138
*36 net139
*37 net140
*38 net141
*39 net142
*40 net143
*41 net144
*42 net126
*43 net145
*44 net146
*45 net147
*46 net148
*47 net149
*48 net150
*49 net151
*50 net152
*51 net106
*52 net107
*53 net127
*54 net108
*55 net109
*56 net128
*57 net129
*58 net130
*59 net131
*60 net132
*61 net133
*62 net134
*63 sram_dout0[0]
*64 sram_dout0[10]
*65 sram_dout0[11]
*66 sram_dout0[12]
*67 sram_dout0[13]
*68 sram_dout0[14]
*69 sram_dout0[15]
*70 sram_dout0[16]
*71 sram_dout0[17]
*72 sram_dout0[18]
*73 sram_dout0[19]
*74 sram_dout0[1]
*75 sram_dout0[20]
*76 sram_dout0[21]
*77 sram_dout0[22]
*78 sram_dout0[23]
*79 sram_dout0[24]
*80 sram_dout0[25]
*81 sram_dout0[26]
*82 sram_dout0[27]
*83 sram_dout0[28]
*84 sram_dout0[29]
*85 sram_dout0[2]
*86 sram_dout0[30]
*87 sram_dout0[31]
*88 sram_dout0[3]
*89 sram_dout0[4]
*90 sram_dout0[5]
*91 sram_dout0[6]
*92 sram_dout0[7]
*93 sram_dout0[8]
*94 sram_dout0[9]
*95 sram_dout1[0]
*96 sram_dout1[10]
*97 sram_dout1[11]
*98 sram_dout1[12]
*99 sram_dout1[13]
*100 sram_dout1[14]
*101 sram_dout1[15]
*102 sram_dout1[16]
*103 sram_dout1[17]
*104 sram_dout1[18]
*105 sram_dout1[19]
*106 sram_dout1[1]
*107 sram_dout1[20]
*108 sram_dout1[21]
*109 sram_dout1[22]
*110 sram_dout1[23]
*111 sram_dout1[24]
*112 sram_dout1[25]
*113 sram_dout1[26]
*114 sram_dout1[27]
*115 sram_dout1[28]
*116 sram_dout1[29]
*117 sram_dout1[2]
*118 sram_dout1[30]
*119 sram_dout1[31]
*120 sram_dout1[3]
*121 sram_dout1[4]
*122 sram_dout1[5]
*123 sram_dout1[6]
*124 sram_dout1[7]
*125 sram_dout1[8]
*126 sram_dout1[9]
*127 net153
*128 net154
*129 net155
*130 net156
*131 net157
*134 wb_ack_o
*135 wb_adr_i[0]
*136 wb_adr_i[10]
*137 wb_adr_i[11]
*138 wb_adr_i[12]
*139 wb_adr_i[13]
*140 wb_adr_i[14]
*141 wb_adr_i[15]
*142 wb_adr_i[16]
*143 wb_adr_i[17]
*144 wb_adr_i[18]
*145 wb_adr_i[19]
*146 wb_adr_i[1]
*147 wb_adr_i[20]
*148 wb_adr_i[21]
*149 wb_adr_i[22]
*150 wb_adr_i[23]
*151 wb_adr_i[2]
*152 wb_adr_i[3]
*153 wb_adr_i[4]
*154 wb_adr_i[5]
*155 wb_adr_i[6]
*156 wb_adr_i[7]
*157 wb_adr_i[8]
*158 wb_adr_i[9]
*159 wb_clk_i
*160 wb_cyc_i
*161 wb_data_i[0]
*162 wb_data_i[10]
*163 wb_data_i[11]
*164 wb_data_i[12]
*165 wb_data_i[13]
*166 wb_data_i[14]
*167 wb_data_i[15]
*168 wb_data_i[16]
*169 wb_data_i[17]
*170 wb_data_i[18]
*171 wb_data_i[19]
*172 wb_data_i[1]
*173 wb_data_i[20]
*174 wb_data_i[21]
*175 wb_data_i[22]
*176 wb_data_i[23]
*177 wb_data_i[24]
*178 wb_data_i[25]
*179 wb_data_i[26]
*180 wb_data_i[27]
*181 wb_data_i[28]
*182 wb_data_i[29]
*183 wb_data_i[2]
*184 wb_data_i[30]
*185 wb_data_i[31]
*186 wb_data_i[3]
*187 wb_data_i[4]
*188 wb_data_i[5]
*189 wb_data_i[6]
*190 wb_data_i[7]
*191 wb_data_i[8]
*192 wb_data_i[9]
*193 wb_data_o[0]
*194 wb_data_o[10]
*195 wb_data_o[11]
*196 wb_data_o[12]
*197 wb_data_o[13]
*198 wb_data_o[14]
*199 wb_data_o[15]
*200 wb_data_o[16]
*201 wb_data_o[17]
*202 wb_data_o[18]
*203 wb_data_o[19]
*204 wb_data_o[1]
*205 wb_data_o[20]
*206 wb_data_o[21]
*207 wb_data_o[22]
*208 wb_data_o[23]
*209 wb_data_o[24]
*210 wb_data_o[25]
*211 wb_data_o[26]
*212 wb_data_o[27]
*213 wb_data_o[28]
*214 wb_data_o[29]
*215 wb_data_o[2]
*216 wb_data_o[30]
*217 wb_data_o[31]
*218 wb_data_o[3]
*219 wb_data_o[4]
*220 wb_data_o[5]
*221 wb_data_o[6]
*222 wb_data_o[7]
*223 wb_data_o[8]
*224 wb_data_o[9]
*225 net110
*226 wb_rst_i
*227 wb_sel_i[0]
*228 wb_sel_i[1]
*229 wb_sel_i[2]
*230 wb_sel_i[3]
*231 wb_stall_o
*232 wb_stb_i
*233 wb_we_i
*234 _000_
*235 _001_
*236 _002_
*237 _003_
*238 _004_
*239 _005_
*240 _006_
*241 _007_
*242 _008_
*243 _009_
*244 _010_
*245 _011_
*246 _012_
*247 _013_
*248 _014_
*249 _015_
*250 _016_
*251 _017_
*252 _018_
*253 _019_
*254 _020_
*255 _021_
*256 _022_
*257 _023_
*258 _024_
*259 _025_
*260 _026_
*261 _027_
*262 _028_
*263 _029_
*264 _030_
*265 _031_
*266 _032_
*267 _033_
*268 _034_
*269 _035_
*270 _036_
*271 _037_
*272 _038_
*273 _039_
*274 _040_
*275 _041_
*276 _042_
*277 _043_
*278 _044_
*279 _045_
*280 _046_
*281 _047_
*282 _048_
*283 _049_
*284 _050_
*285 _051_
*286 _052_
*287 _053_
*288 _054_
*289 _055_
*290 _056_
*291 _057_
*292 _058_
*293 _059_
*294 _060_
*295 _061_
*296 _062_
*297 _063_
*298 _064_
*299 _065_
*300 _066_
*301 _067_
*302 _068_
*303 _069_
*304 _070_
*305 _071_
*306 _072_
*307 _073_
*308 _074_
*309 _075_
*310 _076_
*311 _077_
*312 _078_
*313 _079_
*314 _080_
*315 _081_
*316 _082_
*317 _083_
*318 _084_
*319 _085_
*320 _086_
*321 _087_
*322 _088_
*323 _089_
*324 _090_
*325 _091_
*326 _092_
*327 _093_
*328 _094_
*329 _095_
*330 _096_
*331 _097_
*332 _098_
*333 _099_
*334 _100_
*335 _101_
*336 _102_
*337 _103_
*338 _104_
*339 _105_
*340 _106_
*341 _107_
*342 _108_
*343 _109_
*344 _110_
*345 _111_
*346 _112_
*347 _113_
*348 _114_
*349 _115_
*350 _116_
*351 _117_
*352 _118_
*353 _119_
*354 _120_
*355 _121_
*356 _122_
*357 _123_
*358 _124_
*359 _125_
*360 _126_
*361 _127_
*362 _128_
*363 _129_
*364 _130_
*365 _131_
*366 _132_
*367 _133_
*368 _134_
*369 _135_
*370 _136_
*371 _137_
*372 _138_
*373 _139_
*374 _140_
*375 _141_
*376 _142_
*377 _143_
*378 _144_
*379 _145_
*380 _146_
*381 _147_
*382 _148_
*383 _149_
*384 _150_
*385 _151_
*386 _152_
*387 _153_
*388 _154_
*389 _155_
*390 _156_
*391 _157_
*392 _158_
*393 _159_
*394 _160_
*395 _161_
*396 _162_
*397 net1
*398 net10
*399 net100
*400 net101
*401 net102
*402 net103
*403 net104
*404 net105
*405 net11
*406 net12
*407 net13
*408 net14
*409 net15
*410 net16
*411 net17
*412 net18
*413 net19
*414 net2
*415 net20
*416 net21
*417 net22
*418 net23
*419 net24
*420 net25
*421 net26
*422 net27
*423 net28
*424 net29
*425 net3
*426 net30
*427 net31
*428 net32
*429 net33
*430 net34
*431 net35
*432 net36
*433 net37
*434 net38
*435 net39
*436 net4
*437 net40
*438 net41
*439 net42
*440 net43
*441 net44
*442 net45
*443 net46
*444 net47
*445 net48
*446 net49
*447 net5
*448 net50
*449 net51
*450 net52
*451 net53
*452 net54
*453 net55
*454 net56
*455 net57
*456 net58
*457 net59
*458 net6
*459 net60
*460 net61
*461 net62
*462 net63
*463 net64
*464 net65
*465 net66
*466 net67
*467 net68
*468 net69
*469 net7
*470 net70
*471 net71
*472 net72
*473 net73
*474 net74
*475 net75
*476 net76
*477 net77
*478 net78
*479 net79
*480 net8
*481 net80
*482 net81
*483 net82
*484 net83
*485 net84
*486 net85
*487 net86
*488 net87
*489 net88
*490 net89
*491 net9
*492 net90
*493 net91
*494 net92
*495 net93
*496 net94
*497 net95
*498 net96
*499 net97
*500 net98
*501 net99
*502 wbFlashInterface\.currentAddress\[10\]
*503 wbFlashInterface\.currentAddress\[11\]
*504 wbFlashInterface\.currentAddress\[12\]
*505 wbFlashInterface\.currentAddress\[13\]
*506 wbFlashInterface\.currentAddress\[14\]
*507 wbFlashInterface\.currentAddress\[15\]
*508 wbFlashInterface\.currentAddress\[16\]
*509 wbFlashInterface\.currentAddress\[17\]
*510 wbFlashInterface\.currentAddress\[18\]
*511 wbFlashInterface\.currentAddress\[19\]
*512 wbFlashInterface\.currentAddress\[20\]
*513 wbFlashInterface\.currentAddress\[21\]
*514 wbFlashInterface\.currentAddress\[22\]
*515 wbFlashInterface\.currentAddress\[23\]
*516 wbFlashInterface\.currentAddress\[2\]
*517 wbFlashInterface\.currentAddress\[3\]
*518 wbFlashInterface\.currentAddress\[4\]
*519 wbFlashInterface\.currentAddress\[5\]
*520 wbFlashInterface\.currentAddress\[6\]
*521 wbFlashInterface\.currentAddress\[7\]
*522 wbFlashInterface\.currentAddress\[8\]
*523 wbFlashInterface\.currentAddress\[9\]
*524 wbFlashInterface\.state\[0\]
*525 wbFlashInterface\.state\[1\]
*526 FILLER_0_101
*527 FILLER_0_108
*528 FILLER_0_113
*529 FILLER_0_117
*530 FILLER_0_122
*531 FILLER_0_129
*532 FILLER_0_136
*533 FILLER_0_141
*534 FILLER_0_146
*535 FILLER_0_154
*536 FILLER_0_160
*537 FILLER_0_164
*538 FILLER_0_172
*539 FILLER_0_180
*540 FILLER_0_188
*541 FILLER_0_19
*542 FILLER_0_192
*543 FILLER_0_197
*544 FILLER_0_207
*545 FILLER_0_215
*546 FILLER_0_220
*547 FILLER_0_225
*548 FILLER_0_233
*549 FILLER_0_240
*550 FILLER_0_244
*551 FILLER_0_248
*552 FILLER_0_253
*553 FILLER_0_260
*554 FILLER_0_269
*555 FILLER_0_27
*556 FILLER_0_276
*557 FILLER_0_281
*558 FILLER_0_285
*559 FILLER_0_289
*560 FILLER_0_296
*561 FILLER_0_312
*562 FILLER_0_318
*563 FILLER_0_329
*564 FILLER_0_33
*565 FILLER_0_335
*566 FILLER_0_347
*567 FILLER_0_355
*568 FILLER_0_363
*569 FILLER_0_365
*570 FILLER_0_373
*571 FILLER_0_381
*572 FILLER_0_387
*573 FILLER_0_391
*574 FILLER_0_393
*575 FILLER_0_403
*576 FILLER_0_41
*577 FILLER_0_410
*578 FILLER_0_418
*579 FILLER_0_425
*580 FILLER_0_429
*581 FILLER_0_434
*582 FILLER_0_441
*583 FILLER_0_447
*584 FILLER_0_45
*585 FILLER_0_453
*586 FILLER_0_461
*587 FILLER_0_468
*588 FILLER_0_477
*589 FILLER_0_487
*590 FILLER_0_493
*591 FILLER_0_500
*592 FILLER_0_505
*593 FILLER_0_509
*594 FILLER_0_516
*595 FILLER_0_52
*596 FILLER_0_523
*597 FILLER_0_531
*598 FILLER_0_533
*599 FILLER_0_543
*600 FILLER_0_553
*601 FILLER_0_559
*602 FILLER_0_561
*603 FILLER_0_571
*604 FILLER_0_581
*605 FILLER_0_587
*606 FILLER_0_589
*607 FILLER_0_599
*608 FILLER_0_61
*609 FILLER_0_611
*610 FILLER_0_615
*611 FILLER_0_620
*612 FILLER_0_624
*613 FILLER_0_69
*614 FILLER_0_73
*615 FILLER_0_80
*616 FILLER_0_85
*617 FILLER_0_90
*618 FILLER_10_100
*619 FILLER_10_112
*620 FILLER_10_118
*621 FILLER_10_126
*622 FILLER_10_138
*623 FILLER_10_141
*624 FILLER_10_156
*625 FILLER_10_168
*626 FILLER_10_173
*627 FILLER_10_181
*628 FILLER_10_190
*629 FILLER_10_203
*630 FILLER_10_212
*631 FILLER_10_23
*632 FILLER_10_233
*633 FILLER_10_245
*634 FILLER_10_251
*635 FILLER_10_253
*636 FILLER_10_265
*637 FILLER_10_27
*638 FILLER_10_277
*639 FILLER_10_289
*640 FILLER_10_29
*641 FILLER_10_3
*642 FILLER_10_301
*643 FILLER_10_307
*644 FILLER_10_309
*645 FILLER_10_321
*646 FILLER_10_333
*647 FILLER_10_345
*648 FILLER_10_35
*649 FILLER_10_357
*650 FILLER_10_363
*651 FILLER_10_365
*652 FILLER_10_377
*653 FILLER_10_389
*654 FILLER_10_401
*655 FILLER_10_413
*656 FILLER_10_419
*657 FILLER_10_421
*658 FILLER_10_433
*659 FILLER_10_445
*660 FILLER_10_457
*661 FILLER_10_46
*662 FILLER_10_469
*663 FILLER_10_475
*664 FILLER_10_477
*665 FILLER_10_489
*666 FILLER_10_501
*667 FILLER_10_513
*668 FILLER_10_525
*669 FILLER_10_531
*670 FILLER_10_533
*671 FILLER_10_54
*672 FILLER_10_545
*673 FILLER_10_557
*674 FILLER_10_569
*675 FILLER_10_581
*676 FILLER_10_587
*677 FILLER_10_589
*678 FILLER_10_601
*679 FILLER_10_613
*680 FILLER_10_72
*681 FILLER_10_79
*682 FILLER_10_83
*683 FILLER_10_92
*684 FILLER_11_109
*685 FILLER_11_113
*686 FILLER_11_122
*687 FILLER_11_134
*688 FILLER_11_146
*689 FILLER_11_158
*690 FILLER_11_166
*691 FILLER_11_169
*692 FILLER_11_181
*693 FILLER_11_20
*694 FILLER_11_201
*695 FILLER_11_213
*696 FILLER_11_221
*697 FILLER_11_225
*698 FILLER_11_237
*699 FILLER_11_249
*700 FILLER_11_261
*701 FILLER_11_273
*702 FILLER_11_279
*703 FILLER_11_28
*704 FILLER_11_281
*705 FILLER_11_293
*706 FILLER_11_3
*707 FILLER_11_305
*708 FILLER_11_317
*709 FILLER_11_329
*710 FILLER_11_335
*711 FILLER_11_337
*712 FILLER_11_349
*713 FILLER_11_361
*714 FILLER_11_37
*715 FILLER_11_373
*716 FILLER_11_385
*717 FILLER_11_391
*718 FILLER_11_393
*719 FILLER_11_405
*720 FILLER_11_41
*721 FILLER_11_417
*722 FILLER_11_429
*723 FILLER_11_441
*724 FILLER_11_447
*725 FILLER_11_449
*726 FILLER_11_46
*727 FILLER_11_461
*728 FILLER_11_473
*729 FILLER_11_485
*730 FILLER_11_497
*731 FILLER_11_503
*732 FILLER_11_505
*733 FILLER_11_517
*734 FILLER_11_529
*735 FILLER_11_54
*736 FILLER_11_541
*737 FILLER_11_553
*738 FILLER_11_559
*739 FILLER_11_561
*740 FILLER_11_57
*741 FILLER_11_573
*742 FILLER_11_585
*743 FILLER_11_597
*744 FILLER_11_609
*745 FILLER_11_615
*746 FILLER_11_617
*747 FILLER_11_65
*748 FILLER_11_74
*749 FILLER_11_85
*750 FILLER_11_97
*751 FILLER_12_122
*752 FILLER_12_134
*753 FILLER_12_141
*754 FILLER_12_161
*755 FILLER_12_173
*756 FILLER_12_18
*757 FILLER_12_185
*758 FILLER_12_193
*759 FILLER_12_197
*760 FILLER_12_209
*761 FILLER_12_221
*762 FILLER_12_233
*763 FILLER_12_245
*764 FILLER_12_251
*765 FILLER_12_253
*766 FILLER_12_26
*767 FILLER_12_265
*768 FILLER_12_277
*769 FILLER_12_289
*770 FILLER_12_29
*771 FILLER_12_301
*772 FILLER_12_307
*773 FILLER_12_309
*774 FILLER_12_321
*775 FILLER_12_333
*776 FILLER_12_345
*777 FILLER_12_357
*778 FILLER_12_363
*779 FILLER_12_365
*780 FILLER_12_37
*781 FILLER_12_377
*782 FILLER_12_389
*783 FILLER_12_401
*784 FILLER_12_413
*785 FILLER_12_419
*786 FILLER_12_421
*787 FILLER_12_433
*788 FILLER_12_445
*789 FILLER_12_457
*790 FILLER_12_469
*791 FILLER_12_475
*792 FILLER_12_477
*793 FILLER_12_489
*794 FILLER_12_49
*795 FILLER_12_501
*796 FILLER_12_513
*797 FILLER_12_525
*798 FILLER_12_531
*799 FILLER_12_533
*800 FILLER_12_545
*801 FILLER_12_557
*802 FILLER_12_569
*803 FILLER_12_581
*804 FILLER_12_587
*805 FILLER_12_589
*806 FILLER_12_6
*807 FILLER_12_601
*808 FILLER_12_61
*809 FILLER_12_613
*810 FILLER_12_76
*811 FILLER_12_85
*812 FILLER_12_97
*813 FILLER_13_108
*814 FILLER_13_117
*815 FILLER_13_121
*816 FILLER_13_126
*817 FILLER_13_138
*818 FILLER_13_144
*819 FILLER_13_154
*820 FILLER_13_166
*821 FILLER_13_169
*822 FILLER_13_177
*823 FILLER_13_186
*824 FILLER_13_19
*825 FILLER_13_198
*826 FILLER_13_210
*827 FILLER_13_220
*828 FILLER_13_231
*829 FILLER_13_243
*830 FILLER_13_255
*831 FILLER_13_267
*832 FILLER_13_279
*833 FILLER_13_281
*834 FILLER_13_293
*835 FILLER_13_305
*836 FILLER_13_31
*837 FILLER_13_317
*838 FILLER_13_329
*839 FILLER_13_335
*840 FILLER_13_337
*841 FILLER_13_349
*842 FILLER_13_361
*843 FILLER_13_373
*844 FILLER_13_385
*845 FILLER_13_391
*846 FILLER_13_393
*847 FILLER_13_405
*848 FILLER_13_41
*849 FILLER_13_417
*850 FILLER_13_429
*851 FILLER_13_441
*852 FILLER_13_447
*853 FILLER_13_449
*854 FILLER_13_461
*855 FILLER_13_473
*856 FILLER_13_485
*857 FILLER_13_497
*858 FILLER_13_503
*859 FILLER_13_505
*860 FILLER_13_517
*861 FILLER_13_529
*862 FILLER_13_53
*863 FILLER_13_541
*864 FILLER_13_553
*865 FILLER_13_559
*866 FILLER_13_561
*867 FILLER_13_57
*868 FILLER_13_573
*869 FILLER_13_585
*870 FILLER_13_597
*871 FILLER_13_609
*872 FILLER_13_615
*873 FILLER_13_617
*874 FILLER_13_69
*875 FILLER_13_7
*876 FILLER_13_76
*877 FILLER_13_85
*878 FILLER_13_97
*879 FILLER_14_109
*880 FILLER_14_113
*881 FILLER_14_120
*882 FILLER_14_132
*883 FILLER_14_141
*884 FILLER_14_153
*885 FILLER_14_165
*886 FILLER_14_173
*887 FILLER_14_191
*888 FILLER_14_195
*889 FILLER_14_197
*890 FILLER_14_209
*891 FILLER_14_227
*892 FILLER_14_234
*893 FILLER_14_24
*894 FILLER_14_246
*895 FILLER_14_253
*896 FILLER_14_265
*897 FILLER_14_277
*898 FILLER_14_289
*899 FILLER_14_29
*900 FILLER_14_3
*901 FILLER_14_301
*902 FILLER_14_307
*903 FILLER_14_309
*904 FILLER_14_321
*905 FILLER_14_333
*906 FILLER_14_345
*907 FILLER_14_357
*908 FILLER_14_363
*909 FILLER_14_365
*910 FILLER_14_377
*911 FILLER_14_389
*912 FILLER_14_401
*913 FILLER_14_413
*914 FILLER_14_419
*915 FILLER_14_421
*916 FILLER_14_433
*917 FILLER_14_445
*918 FILLER_14_457
*919 FILLER_14_469
*920 FILLER_14_475
*921 FILLER_14_477
*922 FILLER_14_489
*923 FILLER_14_501
*924 FILLER_14_51
*925 FILLER_14_513
*926 FILLER_14_525
*927 FILLER_14_531
*928 FILLER_14_533
*929 FILLER_14_545
*930 FILLER_14_557
*931 FILLER_14_569
*932 FILLER_14_581
*933 FILLER_14_587
*934 FILLER_14_589
*935 FILLER_14_59
*936 FILLER_14_601
*937 FILLER_14_613
*938 FILLER_14_67
*939 FILLER_14_7
*940 FILLER_14_76
*941 FILLER_14_85
*942 FILLER_14_97
*943 FILLER_15_10
*944 FILLER_15_101
*945 FILLER_15_108
*946 FILLER_15_113
*947 FILLER_15_121
*948 FILLER_15_131
*949 FILLER_15_143
*950 FILLER_15_149
*951 FILLER_15_156
*952 FILLER_15_169
*953 FILLER_15_177
*954 FILLER_15_181
*955 FILLER_15_193
*956 FILLER_15_20
*957 FILLER_15_205
*958 FILLER_15_213
*959 FILLER_15_217
*960 FILLER_15_223
*961 FILLER_15_225
*962 FILLER_15_237
*963 FILLER_15_249
*964 FILLER_15_261
*965 FILLER_15_273
*966 FILLER_15_279
*967 FILLER_15_281
*968 FILLER_15_293
*969 FILLER_15_305
*970 FILLER_15_317
*971 FILLER_15_32
*972 FILLER_15_329
*973 FILLER_15_335
*974 FILLER_15_337
*975 FILLER_15_349
*976 FILLER_15_361
*977 FILLER_15_373
*978 FILLER_15_38
*979 FILLER_15_385
*980 FILLER_15_391
*981 FILLER_15_393
*982 FILLER_15_405
*983 FILLER_15_417
*984 FILLER_15_429
*985 FILLER_15_441
*986 FILLER_15_447
*987 FILLER_15_449
*988 FILLER_15_461
*989 FILLER_15_473
*990 FILLER_15_485
*991 FILLER_15_497
*992 FILLER_15_50
*993 FILLER_15_503
*994 FILLER_15_505
*995 FILLER_15_517
*996 FILLER_15_529
*997 FILLER_15_541
*998 FILLER_15_553
*999 FILLER_15_559
*1000 FILLER_15_561
*1001 FILLER_15_57
*1002 FILLER_15_573
*1003 FILLER_15_585
*1004 FILLER_15_597
*1005 FILLER_15_6
*1006 FILLER_15_609
*1007 FILLER_15_615
*1008 FILLER_15_617
*1009 FILLER_15_69
*1010 FILLER_15_76
*1011 FILLER_16_109
*1012 FILLER_16_11
*1013 FILLER_16_124
*1014 FILLER_16_136
*1015 FILLER_16_141
*1016 FILLER_16_147
*1017 FILLER_16_15
*1018 FILLER_16_151
*1019 FILLER_16_163
*1020 FILLER_16_175
*1021 FILLER_16_187
*1022 FILLER_16_195
*1023 FILLER_16_197
*1024 FILLER_16_209
*1025 FILLER_16_229
*1026 FILLER_16_241
*1027 FILLER_16_249
*1028 FILLER_16_253
*1029 FILLER_16_265
*1030 FILLER_16_27
*1031 FILLER_16_277
*1032 FILLER_16_289
*1033 FILLER_16_29
*1034 FILLER_16_301
*1035 FILLER_16_307
*1036 FILLER_16_309
*1037 FILLER_16_321
*1038 FILLER_16_333
*1039 FILLER_16_345
*1040 FILLER_16_357
*1041 FILLER_16_363
*1042 FILLER_16_365
*1043 FILLER_16_377
*1044 FILLER_16_389
*1045 FILLER_16_401
*1046 FILLER_16_41
*1047 FILLER_16_413
*1048 FILLER_16_419
*1049 FILLER_16_421
*1050 FILLER_16_433
*1051 FILLER_16_445
*1052 FILLER_16_457
*1053 FILLER_16_469
*1054 FILLER_16_475
*1055 FILLER_16_477
*1056 FILLER_16_489
*1057 FILLER_16_501
*1058 FILLER_16_513
*1059 FILLER_16_525
*1060 FILLER_16_53
*1061 FILLER_16_531
*1062 FILLER_16_533
*1063 FILLER_16_545
*1064 FILLER_16_557
*1065 FILLER_16_569
*1066 FILLER_16_581
*1067 FILLER_16_587
*1068 FILLER_16_589
*1069 FILLER_16_601
*1070 FILLER_16_613
*1071 FILLER_16_65
*1072 FILLER_16_7
*1073 FILLER_16_77
*1074 FILLER_16_83
*1075 FILLER_16_85
*1076 FILLER_16_97
*1077 FILLER_17_110
*1078 FILLER_17_113
*1079 FILLER_17_13
*1080 FILLER_17_134
*1081 FILLER_17_146
*1082 FILLER_17_164
*1083 FILLER_17_169
*1084 FILLER_17_177
*1085 FILLER_17_186
*1086 FILLER_17_198
*1087 FILLER_17_210
*1088 FILLER_17_222
*1089 FILLER_17_225
*1090 FILLER_17_237
*1091 FILLER_17_249
*1092 FILLER_17_261
*1093 FILLER_17_273
*1094 FILLER_17_279
*1095 FILLER_17_281
*1096 FILLER_17_293
*1097 FILLER_17_305
*1098 FILLER_17_317
*1099 FILLER_17_329
*1100 FILLER_17_33
*1101 FILLER_17_335
*1102 FILLER_17_337
*1103 FILLER_17_349
*1104 FILLER_17_361
*1105 FILLER_17_373
*1106 FILLER_17_385
*1107 FILLER_17_391
*1108 FILLER_17_393
*1109 FILLER_17_405
*1110 FILLER_17_417
*1111 FILLER_17_429
*1112 FILLER_17_441
*1113 FILLER_17_447
*1114 FILLER_17_449
*1115 FILLER_17_45
*1116 FILLER_17_461
*1117 FILLER_17_473
*1118 FILLER_17_485
*1119 FILLER_17_497
*1120 FILLER_17_503
*1121 FILLER_17_505
*1122 FILLER_17_517
*1123 FILLER_17_529
*1124 FILLER_17_53
*1125 FILLER_17_541
*1126 FILLER_17_553
*1127 FILLER_17_559
*1128 FILLER_17_561
*1129 FILLER_17_573
*1130 FILLER_17_585
*1131 FILLER_17_597
*1132 FILLER_17_6
*1133 FILLER_17_609
*1134 FILLER_17_615
*1135 FILLER_17_617
*1136 FILLER_17_74
*1137 FILLER_17_86
*1138 FILLER_17_98
*1139 FILLER_18_107
*1140 FILLER_18_11
*1141 FILLER_18_123
*1142 FILLER_18_131
*1143 FILLER_18_139
*1144 FILLER_18_141
*1145 FILLER_18_153
*1146 FILLER_18_165
*1147 FILLER_18_171
*1148 FILLER_18_192
*1149 FILLER_18_197
*1150 FILLER_18_209
*1151 FILLER_18_221
*1152 FILLER_18_233
*1153 FILLER_18_24
*1154 FILLER_18_245
*1155 FILLER_18_251
*1156 FILLER_18_253
*1157 FILLER_18_265
*1158 FILLER_18_277
*1159 FILLER_18_289
*1160 FILLER_18_29
*1161 FILLER_18_3
*1162 FILLER_18_301
*1163 FILLER_18_307
*1164 FILLER_18_309
*1165 FILLER_18_321
*1166 FILLER_18_333
*1167 FILLER_18_345
*1168 FILLER_18_357
*1169 FILLER_18_363
*1170 FILLER_18_365
*1171 FILLER_18_377
*1172 FILLER_18_389
*1173 FILLER_18_401
*1174 FILLER_18_41
*1175 FILLER_18_413
*1176 FILLER_18_419
*1177 FILLER_18_421
*1178 FILLER_18_433
*1179 FILLER_18_445
*1180 FILLER_18_457
*1181 FILLER_18_469
*1182 FILLER_18_475
*1183 FILLER_18_477
*1184 FILLER_18_489
*1185 FILLER_18_49
*1186 FILLER_18_501
*1187 FILLER_18_513
*1188 FILLER_18_525
*1189 FILLER_18_531
*1190 FILLER_18_533
*1191 FILLER_18_545
*1192 FILLER_18_55
*1193 FILLER_18_557
*1194 FILLER_18_569
*1195 FILLER_18_581
*1196 FILLER_18_587
*1197 FILLER_18_589
*1198 FILLER_18_601
*1199 FILLER_18_613
*1200 FILLER_18_65
*1201 FILLER_18_7
*1202 FILLER_18_77
*1203 FILLER_18_83
*1204 FILLER_18_95
*1205 FILLER_19_102
*1206 FILLER_19_110
*1207 FILLER_19_113
*1208 FILLER_19_121
*1209 FILLER_19_13
*1210 FILLER_19_134
*1211 FILLER_19_146
*1212 FILLER_19_158
*1213 FILLER_19_166
*1214 FILLER_19_169
*1215 FILLER_19_177
*1216 FILLER_19_182
*1217 FILLER_19_194
*1218 FILLER_19_206
*1219 FILLER_19_218
*1220 FILLER_19_225
*1221 FILLER_19_23
*1222 FILLER_19_237
*1223 FILLER_19_249
*1224 FILLER_19_261
*1225 FILLER_19_273
*1226 FILLER_19_279
*1227 FILLER_19_281
*1228 FILLER_19_293
*1229 FILLER_19_305
*1230 FILLER_19_317
*1231 FILLER_19_329
*1232 FILLER_19_335
*1233 FILLER_19_337
*1234 FILLER_19_349
*1235 FILLER_19_35
*1236 FILLER_19_361
*1237 FILLER_19_373
*1238 FILLER_19_385
*1239 FILLER_19_391
*1240 FILLER_19_393
*1241 FILLER_19_405
*1242 FILLER_19_417
*1243 FILLER_19_429
*1244 FILLER_19_441
*1245 FILLER_19_447
*1246 FILLER_19_449
*1247 FILLER_19_461
*1248 FILLER_19_47
*1249 FILLER_19_473
*1250 FILLER_19_485
*1251 FILLER_19_497
*1252 FILLER_19_503
*1253 FILLER_19_505
*1254 FILLER_19_517
*1255 FILLER_19_529
*1256 FILLER_19_541
*1257 FILLER_19_55
*1258 FILLER_19_553
*1259 FILLER_19_559
*1260 FILLER_19_561
*1261 FILLER_19_57
*1262 FILLER_19_573
*1263 FILLER_19_585
*1264 FILLER_19_597
*1265 FILLER_19_609
*1266 FILLER_19_615
*1267 FILLER_19_617
*1268 FILLER_19_65
*1269 FILLER_19_7
*1270 FILLER_19_77
*1271 FILLER_19_81
*1272 FILLER_1_105
*1273 FILLER_1_111
*1274 FILLER_1_116
*1275 FILLER_1_126
*1276 FILLER_1_13
*1277 FILLER_1_133
*1278 FILLER_1_142
*1279 FILLER_1_157
*1280 FILLER_1_164
*1281 FILLER_1_172
*1282 FILLER_1_179
*1283 FILLER_1_186
*1284 FILLER_1_193
*1285 FILLER_1_203
*1286 FILLER_1_207
*1287 FILLER_1_21
*1288 FILLER_1_211
*1289 FILLER_1_220
*1290 FILLER_1_228
*1291 FILLER_1_240
*1292 FILLER_1_244
*1293 FILLER_1_248
*1294 FILLER_1_260
*1295 FILLER_1_264
*1296 FILLER_1_276
*1297 FILLER_1_281
*1298 FILLER_1_29
*1299 FILLER_1_293
*1300 FILLER_1_301
*1301 FILLER_1_313
*1302 FILLER_1_321
*1303 FILLER_1_327
*1304 FILLER_1_335
*1305 FILLER_1_337
*1306 FILLER_1_343
*1307 FILLER_1_35
*1308 FILLER_1_355
*1309 FILLER_1_359
*1310 FILLER_1_371
*1311 FILLER_1_378
*1312 FILLER_1_390
*1313 FILLER_1_396
*1314 FILLER_1_408
*1315 FILLER_1_423
*1316 FILLER_1_435
*1317 FILLER_1_447
*1318 FILLER_1_449
*1319 FILLER_1_455
*1320 FILLER_1_467
*1321 FILLER_1_471
*1322 FILLER_1_486
*1323 FILLER_1_498
*1324 FILLER_1_508
*1325 FILLER_1_52
*1326 FILLER_1_520
*1327 FILLER_1_528
*1328 FILLER_1_534
*1329 FILLER_1_546
*1330 FILLER_1_552
*1331 FILLER_1_556
*1332 FILLER_1_561
*1333 FILLER_1_566
*1334 FILLER_1_57
*1335 FILLER_1_578
*1336 FILLER_1_582
*1337 FILLER_1_594
*1338 FILLER_1_598
*1339 FILLER_1_612
*1340 FILLER_1_617
*1341 FILLER_1_621
*1342 FILLER_1_66
*1343 FILLER_1_86
*1344 FILLER_1_90
*1345 FILLER_1_94
*1346 FILLER_20_106
*1347 FILLER_20_118
*1348 FILLER_20_126
*1349 FILLER_20_133
*1350 FILLER_20_139
*1351 FILLER_20_141
*1352 FILLER_20_150
*1353 FILLER_20_162
*1354 FILLER_20_170
*1355 FILLER_20_177
*1356 FILLER_20_187
*1357 FILLER_20_195
*1358 FILLER_20_197
*1359 FILLER_20_209
*1360 FILLER_20_221
*1361 FILLER_20_233
*1362 FILLER_20_24
*1363 FILLER_20_245
*1364 FILLER_20_251
*1365 FILLER_20_253
*1366 FILLER_20_265
*1367 FILLER_20_277
*1368 FILLER_20_289
*1369 FILLER_20_29
*1370 FILLER_20_3
*1371 FILLER_20_301
*1372 FILLER_20_307
*1373 FILLER_20_309
*1374 FILLER_20_321
*1375 FILLER_20_333
*1376 FILLER_20_345
*1377 FILLER_20_357
*1378 FILLER_20_363
*1379 FILLER_20_365
*1380 FILLER_20_377
*1381 FILLER_20_389
*1382 FILLER_20_401
*1383 FILLER_20_41
*1384 FILLER_20_413
*1385 FILLER_20_419
*1386 FILLER_20_421
*1387 FILLER_20_433
*1388 FILLER_20_445
*1389 FILLER_20_457
*1390 FILLER_20_469
*1391 FILLER_20_475
*1392 FILLER_20_477
*1393 FILLER_20_489
*1394 FILLER_20_501
*1395 FILLER_20_513
*1396 FILLER_20_525
*1397 FILLER_20_531
*1398 FILLER_20_533
*1399 FILLER_20_545
*1400 FILLER_20_557
*1401 FILLER_20_569
*1402 FILLER_20_581
*1403 FILLER_20_587
*1404 FILLER_20_589
*1405 FILLER_20_60
*1406 FILLER_20_601
*1407 FILLER_20_613
*1408 FILLER_20_7
*1409 FILLER_20_74
*1410 FILLER_20_82
*1411 FILLER_20_85
*1412 FILLER_20_94
*1413 FILLER_21_107
*1414 FILLER_21_111
*1415 FILLER_21_113
*1416 FILLER_21_121
*1417 FILLER_21_125
*1418 FILLER_21_13
*1419 FILLER_21_137
*1420 FILLER_21_141
*1421 FILLER_21_145
*1422 FILLER_21_157
*1423 FILLER_21_165
*1424 FILLER_21_17
*1425 FILLER_21_172
*1426 FILLER_21_180
*1427 FILLER_21_198
*1428 FILLER_21_210
*1429 FILLER_21_222
*1430 FILLER_21_225
*1431 FILLER_21_237
*1432 FILLER_21_249
*1433 FILLER_21_261
*1434 FILLER_21_273
*1435 FILLER_21_279
*1436 FILLER_21_281
*1437 FILLER_21_29
*1438 FILLER_21_293
*1439 FILLER_21_305
*1440 FILLER_21_317
*1441 FILLER_21_329
*1442 FILLER_21_335
*1443 FILLER_21_337
*1444 FILLER_21_349
*1445 FILLER_21_361
*1446 FILLER_21_373
*1447 FILLER_21_385
*1448 FILLER_21_391
*1449 FILLER_21_393
*1450 FILLER_21_405
*1451 FILLER_21_41
*1452 FILLER_21_417
*1453 FILLER_21_429
*1454 FILLER_21_441
*1455 FILLER_21_447
*1456 FILLER_21_449
*1457 FILLER_21_461
*1458 FILLER_21_473
*1459 FILLER_21_485
*1460 FILLER_21_497
*1461 FILLER_21_503
*1462 FILLER_21_505
*1463 FILLER_21_517
*1464 FILLER_21_52
*1465 FILLER_21_529
*1466 FILLER_21_541
*1467 FILLER_21_553
*1468 FILLER_21_559
*1469 FILLER_21_561
*1470 FILLER_21_57
*1471 FILLER_21_573
*1472 FILLER_21_585
*1473 FILLER_21_597
*1474 FILLER_21_609
*1475 FILLER_21_61
*1476 FILLER_21_615
*1477 FILLER_21_617
*1478 FILLER_21_68
*1479 FILLER_21_7
*1480 FILLER_21_80
*1481 FILLER_21_84
*1482 FILLER_21_87
*1483 FILLER_21_95
*1484 FILLER_22_102
*1485 FILLER_22_11
*1486 FILLER_22_114
*1487 FILLER_22_132
*1488 FILLER_22_158
*1489 FILLER_22_170
*1490 FILLER_22_182
*1491 FILLER_22_194
*1492 FILLER_22_197
*1493 FILLER_22_209
*1494 FILLER_22_21
*1495 FILLER_22_221
*1496 FILLER_22_233
*1497 FILLER_22_245
*1498 FILLER_22_251
*1499 FILLER_22_253
*1500 FILLER_22_265
*1501 FILLER_22_27
*1502 FILLER_22_277
*1503 FILLER_22_289
*1504 FILLER_22_29
*1505 FILLER_22_301
*1506 FILLER_22_307
*1507 FILLER_22_309
*1508 FILLER_22_321
*1509 FILLER_22_333
*1510 FILLER_22_345
*1511 FILLER_22_357
*1512 FILLER_22_363
*1513 FILLER_22_365
*1514 FILLER_22_377
*1515 FILLER_22_389
*1516 FILLER_22_401
*1517 FILLER_22_41
*1518 FILLER_22_413
*1519 FILLER_22_419
*1520 FILLER_22_421
*1521 FILLER_22_433
*1522 FILLER_22_445
*1523 FILLER_22_457
*1524 FILLER_22_469
*1525 FILLER_22_475
*1526 FILLER_22_477
*1527 FILLER_22_489
*1528 FILLER_22_501
*1529 FILLER_22_513
*1530 FILLER_22_525
*1531 FILLER_22_53
*1532 FILLER_22_531
*1533 FILLER_22_533
*1534 FILLER_22_545
*1535 FILLER_22_557
*1536 FILLER_22_569
*1537 FILLER_22_57
*1538 FILLER_22_581
*1539 FILLER_22_587
*1540 FILLER_22_589
*1541 FILLER_22_601
*1542 FILLER_22_613
*1543 FILLER_22_64
*1544 FILLER_22_7
*1545 FILLER_22_71
*1546 FILLER_22_83
*1547 FILLER_22_85
*1548 FILLER_22_90
*1549 FILLER_23_105
*1550 FILLER_23_111
*1551 FILLER_23_113
*1552 FILLER_23_125
*1553 FILLER_23_137
*1554 FILLER_23_149
*1555 FILLER_23_161
*1556 FILLER_23_167
*1557 FILLER_23_186
*1558 FILLER_23_198
*1559 FILLER_23_210
*1560 FILLER_23_222
*1561 FILLER_23_225
*1562 FILLER_23_237
*1563 FILLER_23_249
*1564 FILLER_23_26
*1565 FILLER_23_261
*1566 FILLER_23_273
*1567 FILLER_23_279
*1568 FILLER_23_281
*1569 FILLER_23_293
*1570 FILLER_23_305
*1571 FILLER_23_317
*1572 FILLER_23_329
*1573 FILLER_23_335
*1574 FILLER_23_337
*1575 FILLER_23_349
*1576 FILLER_23_361
*1577 FILLER_23_373
*1578 FILLER_23_38
*1579 FILLER_23_385
*1580 FILLER_23_391
*1581 FILLER_23_393
*1582 FILLER_23_405
*1583 FILLER_23_417
*1584 FILLER_23_429
*1585 FILLER_23_441
*1586 FILLER_23_447
*1587 FILLER_23_449
*1588 FILLER_23_461
*1589 FILLER_23_473
*1590 FILLER_23_485
*1591 FILLER_23_497
*1592 FILLER_23_50
*1593 FILLER_23_503
*1594 FILLER_23_505
*1595 FILLER_23_517
*1596 FILLER_23_529
*1597 FILLER_23_541
*1598 FILLER_23_553
*1599 FILLER_23_559
*1600 FILLER_23_561
*1601 FILLER_23_57
*1602 FILLER_23_573
*1603 FILLER_23_585
*1604 FILLER_23_597
*1605 FILLER_23_6
*1606 FILLER_23_609
*1607 FILLER_23_615
*1608 FILLER_23_617
*1609 FILLER_23_69
*1610 FILLER_23_81
*1611 FILLER_23_87
*1612 FILLER_24_109
*1613 FILLER_24_121
*1614 FILLER_24_133
*1615 FILLER_24_139
*1616 FILLER_24_141
*1617 FILLER_24_15
*1618 FILLER_24_153
*1619 FILLER_24_165
*1620 FILLER_24_177
*1621 FILLER_24_189
*1622 FILLER_24_195
*1623 FILLER_24_197
*1624 FILLER_24_209
*1625 FILLER_24_221
*1626 FILLER_24_233
*1627 FILLER_24_245
*1628 FILLER_24_251
*1629 FILLER_24_253
*1630 FILLER_24_265
*1631 FILLER_24_27
*1632 FILLER_24_277
*1633 FILLER_24_289
*1634 FILLER_24_29
*1635 FILLER_24_301
*1636 FILLER_24_307
*1637 FILLER_24_309
*1638 FILLER_24_321
*1639 FILLER_24_333
*1640 FILLER_24_345
*1641 FILLER_24_357
*1642 FILLER_24_363
*1643 FILLER_24_365
*1644 FILLER_24_377
*1645 FILLER_24_389
*1646 FILLER_24_401
*1647 FILLER_24_41
*1648 FILLER_24_413
*1649 FILLER_24_419
*1650 FILLER_24_421
*1651 FILLER_24_433
*1652 FILLER_24_445
*1653 FILLER_24_457
*1654 FILLER_24_469
*1655 FILLER_24_475
*1656 FILLER_24_477
*1657 FILLER_24_489
*1658 FILLER_24_501
*1659 FILLER_24_513
*1660 FILLER_24_525
*1661 FILLER_24_53