*SPEF "ieee 1481-1999"
*DESIGN "Flash"
*DATE "11:11:11 Fri 11 11, 1111"
*VENDOR "OpenRCX"
*PROGRAM "Parallel Extraction"
*VERSION "1.0"
*DESIGN_FLOW "NAME_SCOPE LOCAL" "PIN_CAP NONE"
*DIVIDER /
*DELIMITER :
*BUS_DELIMITER []
*T_UNIT 1 NS
*C_UNIT 1 PF
*R_UNIT 1 OHM
*L_UNIT 1 HENRY

*NAME_MAP
*1 net106
*2 flash_io0_read
*3 net153
*4 net107
*5 flash_io1_read
*6 net108
*7 net109
*8 net110
*9 net111
*10 net112
*11 net113
*12 net114
*13 net115
*14 net116
*15 net117
*16 net118
*17 net119
*18 sram_addr1[0]
*19 sram_addr1[1]
*20 sram_addr1[2]
*21 sram_addr1[3]
*22 sram_addr1[4]
*23 sram_addr1[5]
*24 sram_addr1[6]
*25 sram_addr1[7]
*26 sram_addr1[8]
*27 sram_clk0
*28 sram_clk1
*29 net154
*30 sram_csb1
*31 net120
*32 net130
*33 net131
*34 net132
*35 net133
*36 net134
*37 net135
*38 net136
*39 net137
*40 net138
*41 net139
*42 net121
*43 net140
*44 net141
*45 net142
*46 net143
*47 net144
*48 net145
*49 net146
*50 net147
*51 net148
*52 net149
*53 net122
*54 net150
*55 net151
*56 net123
*57 net124
*58 net125
*59 net126
*60 net127
*61 net128
*62 net129
*63 sram_dout0[0]
*64 sram_dout0[10]
*65 sram_dout0[11]
*66 sram_dout0[12]
*67 sram_dout0[13]
*68 sram_dout0[14]
*69 sram_dout0[15]
*70 sram_dout0[16]
*71 sram_dout0[17]
*72 sram_dout0[18]
*73 sram_dout0[19]
*74 sram_dout0[1]
*75 sram_dout0[20]
*76 sram_dout0[21]
*77 sram_dout0[22]
*78 sram_dout0[23]
*79 sram_dout0[24]
*80 sram_dout0[25]
*81 sram_dout0[26]
*82 sram_dout0[27]
*83 sram_dout0[28]
*84 sram_dout0[29]
*85 sram_dout0[2]
*86 sram_dout0[30]
*87 sram_dout0[31]
*88 sram_dout0[3]
*89 sram_dout0[4]
*90 sram_dout0[5]
*91 sram_dout0[6]
*92 sram_dout0[7]
*93 sram_dout0[8]
*94 sram_dout0[9]
*95 sram_dout1[0]
*96 sram_dout1[10]
*97 sram_dout1[11]
*98 sram_dout1[12]
*99 sram_dout1[13]
*100 sram_dout1[14]
*101 sram_dout1[15]
*102 sram_dout1[16]
*103 sram_dout1[17]
*104 sram_dout1[18]
*105 sram_dout1[19]
*106 sram_dout1[1]
*107 sram_dout1[20]
*108 sram_dout1[21]
*109 sram_dout1[22]
*110 sram_dout1[23]
*111 sram_dout1[24]
*112 sram_dout1[25]
*113 sram_dout1[26]
*114 sram_dout1[27]
*115 sram_dout1[28]
*116 sram_dout1[29]
*117 sram_dout1[2]
*118 sram_dout1[30]
*119 sram_dout1[31]
*120 sram_dout1[3]
*121 sram_dout1[4]
*122 sram_dout1[5]
*123 sram_dout1[6]
*124 sram_dout1[7]
*125 sram_dout1[8]
*126 sram_dout1[9]
*127 net155
*128 net156
*129 net157
*130 net158
*131 net159
*134 wb_ack_o
*135 wb_adr_i[0]
*136 wb_adr_i[10]
*137 wb_adr_i[11]
*138 wb_adr_i[12]
*139 wb_adr_i[13]
*140 wb_adr_i[14]
*141 wb_adr_i[15]
*142 wb_adr_i[16]
*143 wb_adr_i[17]
*144 wb_adr_i[18]
*145 wb_adr_i[19]
*146 wb_adr_i[1]
*147 wb_adr_i[20]
*148 wb_adr_i[21]
*149 wb_adr_i[22]
*150 wb_adr_i[23]
*151 wb_adr_i[2]
*152 wb_adr_i[3]
*153 wb_adr_i[4]
*154 wb_adr_i[5]
*155 wb_adr_i[6]
*156 wb_adr_i[7]
*157 wb_adr_i[8]
*158 wb_adr_i[9]
*159 wb_clk_i
*160 wb_cyc_i
*161 wb_data_i[0]
*162 wb_data_i[10]
*163 wb_data_i[11]
*164 wb_data_i[12]
*165 wb_data_i[13]
*166 wb_data_i[14]
*167 wb_data_i[15]
*168 wb_data_i[16]
*169 wb_data_i[17]
*170 wb_data_i[18]
*171 wb_data_i[19]
*172 wb_data_i[1]
*173 wb_data_i[20]
*174 wb_data_i[21]
*175 wb_data_i[22]
*176 wb_data_i[23]
*177 wb_data_i[24]
*178 wb_data_i[25]
*179 wb_data_i[26]
*180 wb_data_i[27]
*181 wb_data_i[28]
*182 wb_data_i[29]
*183 wb_data_i[2]
*184 wb_data_i[30]
*185 wb_data_i[31]
*186 wb_data_i[3]
*187 wb_data_i[4]
*188 wb_data_i[5]
*189 wb_data_i[6]
*190 wb_data_i[7]
*191 wb_data_i[8]
*192 wb_data_i[9]
*193 wb_data_o[0]
*194 wb_data_o[10]
*195 wb_data_o[11]
*196 wb_data_o[12]
*197 wb_data_o[13]
*198 wb_data_o[14]
*199 wb_data_o[15]
*200 wb_data_o[16]
*201 wb_data_o[17]
*202 wb_data_o[18]
*203 wb_data_o[19]
*204 wb_data_o[1]
*205 wb_data_o[20]
*206 wb_data_o[21]
*207 wb_data_o[22]
*208 wb_data_o[23]
*209 wb_data_o[24]
*210 wb_data_o[25]
*211 wb_data_o[26]
*212 wb_data_o[27]
*213 wb_data_o[28]
*214 wb_data_o[29]
*215 wb_data_o[2]
*216 wb_data_o[30]
*217 wb_data_o[31]
*218 wb_data_o[3]
*219 wb_data_o[4]
*220 wb_data_o[5]
*221 wb_data_o[6]
*222 wb_data_o[7]
*223 wb_data_o[8]
*224 wb_data_o[9]
*225 net152
*226 wb_rst_i
*227 wb_sel_i[0]
*228 wb_sel_i[1]
*229 wb_sel_i[2]
*230 wb_sel_i[3]
*231 wb_stall_o
*232 wb_stb_i
*233 wb_we_i
*234 _000_
*235 _001_
*236 _002_
*237 _003_
*238 _004_
*239 _005_
*240 _006_
*241 _007_
*242 _008_
*243 _009_
*244 _010_
*245 _011_
*246 _012_
*247 _013_
*248 _014_
*249 _015_
*250 _016_
*251 _017_
*252 _018_
*253 _019_
*254 _020_
*255 _021_
*256 _022_
*257 _023_
*258 _024_
*259 _025_
*260 _026_
*261 _027_
*262 _028_
*263 _029_
*264 _030_
*265 _031_
*266 _032_
*267 _033_
*268 _034_
*269 _035_
*270 _036_
*271 _037_
*272 _038_
*273 _039_
*274 _040_
*275 _041_
*276 _042_
*277 _043_
*278 _044_
*279 _045_
*280 _046_
*281 _047_
*282 _048_
*283 _049_
*284 _050_
*285 _051_
*286 _052_
*287 _053_
*288 _054_
*289 _055_
*290 _056_
*291 _057_
*292 _058_
*293 _059_
*294 _060_
*295 _061_
*296 _062_
*297 _063_
*298 _064_
*299 _065_
*300 _066_
*301 _067_
*302 _068_
*303 _069_
*304 _070_
*305 _071_
*306 _072_
*307 _073_
*308 _074_
*309 _075_
*310 _076_
*311 _077_
*312 _078_
*313 _079_
*314 _080_
*315 _081_
*316 _082_
*317 _083_
*318 _084_
*319 _085_
*320 _086_
*321 _087_
*322 _088_
*323 _089_
*324 _090_
*325 _091_
*326 _092_
*327 _093_
*328 _094_
*329 _095_
*330 _096_
*331 _097_
*332 _098_
*333 _099_
*334 _100_
*335 _101_
*336 _102_
*337 _103_
*338 _104_
*339 _105_
*340 _106_
*341 _107_
*342 _108_
*343 _109_
*344 _110_
*345 _111_
*346 _112_
*347 _113_
*348 _114_
*349 _115_
*350 net1
*351 net10
*352 net100
*353 net101
*354 net102
*355 net103
*356 net104
*357 net105
*358 net11
*359 net12
*360 net13
*361 net14
*362 net15
*363 net16
*364 net17
*365 net18
*366 net19
*367 net2
*368 net20
*369 net21
*370 net22
*371 net23
*372 net24
*373 net25
*374 net26
*375 net27
*376 net28
*377 net29
*378 net3
*379 net30
*380 net31
*381 net32
*382 net33
*383 net34
*384 net35
*385 net36
*386 net37
*387 net38
*388 net39
*389 net4
*390 net40
*391 net41
*392 net42
*393 net43
*394 net44
*395 net45
*396 net46
*397 net47
*398 net48
*399 net49
*400 net5
*401 net50
*402 net51
*403 net52
*404 net53
*405 net54
*406 net55
*407 net56
*408 net57
*409 net58
*410 net59
*411 net6
*412 net60
*413 net61
*414 net62
*415 net63
*416 net64
*417 net65
*418 net66
*419 net67
*420 net68
*421 net69
*422 net7
*423 net70
*424 net71
*425 net72
*426 net73
*427 net74
*428 net75
*429 net76
*430 net77
*431 net78
*432 net79
*433 net8
*434 net80
*435 net81
*436 net82
*437 net83
*438 net84
*439 net85
*440 net86
*441 net87
*442 net88
*443 net89
*444 net9
*445 net90
*446 net91
*447 net92
*448 net93
*449 net94
*450 net95
*451 net96
*452 net97
*453 net98
*454 net99
*455 wbFlashInterface\.currentAddress\[10\]
*456 wbFlashInterface\.currentAddress\[11\]
*457 wbFlashInterface\.currentAddress\[12\]
*458 wbFlashInterface\.currentAddress\[13\]
*459 wbFlashInterface\.currentAddress\[14\]
*460 wbFlashInterface\.currentAddress\[15\]
*461 wbFlashInterface\.currentAddress\[16\]
*462 wbFlashInterface\.currentAddress\[17\]
*463 wbFlashInterface\.currentAddress\[18\]
*464 wbFlashInterface\.currentAddress\[19\]
*465 wbFlashInterface\.currentAddress\[20\]
*466 wbFlashInterface\.currentAddress\[21\]
*467 wbFlashInterface\.currentAddress\[22\]
*468 wbFlashInterface\.currentAddress\[23\]
*469 wbFlashInterface\.currentAddress\[2\]
*470 wbFlashInterface\.currentAddress\[3\]
*471 wbFlashInterface\.currentAddress\[4\]
*472 wbFlashInterface\.currentAddress\[5\]
*473 wbFlashInterface\.currentAddress\[6\]
*474 wbFlashInterface\.currentAddress\[7\]
*475 wbFlashInterface\.currentAddress\[8\]
*476 wbFlashInterface\.currentAddress\[9\]
*477 wbFlashInterface\.state\[0\]
*478 wbFlashInterface\.state\[1\]
*479 FILLER_0_1002
*480 FILLER_0_101
*481 FILLER_0_1012
*482 FILLER_0_1019
*483 FILLER_0_1030
*484 FILLER_0_1042
*485 FILLER_0_1051
*486 FILLER_0_1058
*487 FILLER_0_1081
*488 FILLER_0_1086
*489 FILLER_0_109
*490 FILLER_0_1090
*491 FILLER_0_1097
*492 FILLER_0_1101
*493 FILLER_0_1109
*494 FILLER_0_1113
*495 FILLER_0_1117
*496 FILLER_0_1121
*497 FILLER_0_1141
*498 FILLER_0_1147
*499 FILLER_0_1149
*500 FILLER_0_116
*501 FILLER_0_1161
*502 FILLER_0_1168
*503 FILLER_0_1186
*504 FILLER_0_1193
*505 FILLER_0_1208
*506 FILLER_0_1216
*507 FILLER_0_122
*508 FILLER_0_1222
*509 FILLER_0_1230
*510 FILLER_0_1237
*511 FILLER_0_1243
*512 FILLER_0_1254
*513 FILLER_0_1265
*514 FILLER_0_127
*515 FILLER_0_1273
*516 FILLER_0_131
*517 FILLER_0_135
*518 FILLER_0_141
*519 FILLER_0_147
*520 FILLER_0_153
*521 FILLER_0_157
*522 FILLER_0_161
*523 FILLER_0_167
*524 FILLER_0_169
*525 FILLER_0_178
*526 FILLER_0_185
*527 FILLER_0_19
*528 FILLER_0_192
*529 FILLER_0_197
*530 FILLER_0_205
*531 FILLER_0_209
*532 FILLER_0_213
*533 FILLER_0_221
*534 FILLER_0_225
*535 FILLER_0_232
*536 FILLER_0_239
*537 FILLER_0_248
*538 FILLER_0_257
*539 FILLER_0_261
*540 FILLER_0_265
*541 FILLER_0_27
*542 FILLER_0_277
*543 FILLER_0_284
*544 FILLER_0_291
*545 FILLER_0_302
*546 FILLER_0_306
*547 FILLER_0_315
*548 FILLER_0_319
*549 FILLER_0_32
*550 FILLER_0_326
*551 FILLER_0_330
*552 FILLER_0_337
*553 FILLER_0_343
*554 FILLER_0_351
*555 FILLER_0_358
*556 FILLER_0_365
*557 FILLER_0_373
*558 FILLER_0_377
*559 FILLER_0_380
*560 FILLER_0_388
*561 FILLER_0_39
*562 FILLER_0_397
*563 FILLER_0_401
*564 FILLER_0_408
*565 FILLER_0_416
*566 FILLER_0_421
*567 FILLER_0_425
*568 FILLER_0_428
*569 FILLER_0_43
*570 FILLER_0_434
*571 FILLER_0_441
*572 FILLER_0_447
*573 FILLER_0_449
*574 FILLER_0_455
*575 FILLER_0_464
*576 FILLER_0_471
*577 FILLER_0_475
*578 FILLER_0_477
*579 FILLER_0_482
*580 FILLER_0_49
*581 FILLER_0_491
*582 FILLER_0_500
*583 FILLER_0_510
*584 FILLER_0_517
*585 FILLER_0_528
*586 FILLER_0_533
*587 FILLER_0_543
*588 FILLER_0_55
*589 FILLER_0_551
*590 FILLER_0_556
*591 FILLER_0_566
*592 FILLER_0_573
*593 FILLER_0_584
*594 FILLER_0_589
*595 FILLER_0_595
*596 FILLER_0_60
*597 FILLER_0_606
*598 FILLER_0_614
*599 FILLER_0_617
*600 FILLER_0_621
*601 FILLER_0_633
*602 FILLER_0_640
*603 FILLER_0_648
*604 FILLER_0_656
*605 FILLER_0_662
*606 FILLER_0_670
*607 FILLER_0_678
*608 FILLER_0_68
*609 FILLER_0_685
*610 FILLER_0_692
*611 FILLER_0_706
*612 FILLER_0_715
*613 FILLER_0_722
*614 FILLER_0_729
*615 FILLER_0_737
*616 FILLER_0_744
*617 FILLER_0_75
*618 FILLER_0_751
*619 FILLER_0_755
*620 FILLER_0_760
*621 FILLER_0_769
*622 FILLER_0_778
*623 FILLER_0_790
*624 FILLER_0_803
*625 FILLER_0_811
*626 FILLER_0_817
*627 FILLER_0_83
*628 FILLER_0_830
*629 FILLER_0_838
*630 FILLER_0_845
*631 FILLER_0_85
*632 FILLER_0_852
*633 FILLER_0_859
*634 FILLER_0_867
*635 FILLER_0_869
*636 FILLER_0_874
*637 FILLER_0_883
*638 FILLER_0_892
*639 FILLER_0_900
*640 FILLER_0_904
*641 FILLER_0_908
*642 FILLER_0_91
*643 FILLER_0_918
*644 FILLER_0_925
*645 FILLER_0_933
*646 FILLER_0_941
*647 FILLER_0_947
*648 FILLER_0_951
*649 FILLER_0_956
*650 FILLER_0_963
*651 FILLER_0_976
*652 FILLER_0_986
*653 FILLER_0_995
*654 FILLER_10_1005
*655 FILLER_10_1017
*656 FILLER_10_1029
*657 FILLER_10_1035
*658 FILLER_10_1037
*659 FILLER_10_1049
*660 FILLER_10_1061
*661 FILLER_10_1073
*662 FILLER_10_1085
*663 FILLER_10_109
*664 FILLER_10_1091
*665 FILLER_10_1093
*666 FILLER_10_1105
*667 FILLER_10_1117
*668 FILLER_10_1129
*669 FILLER_10_1141
*670 FILLER_10_1147
*671 FILLER_10_1149
*672 FILLER_10_1161
*673 FILLER_10_1173
*674 FILLER_10_1185
*675 FILLER_10_1197
*676 FILLER_10_1203
*677 FILLER_10_1205
*678 FILLER_10_121
*679 FILLER_10_1217
*680 FILLER_10_1229
*681 FILLER_10_1241
*682 FILLER_10_1253
*683 FILLER_10_1259
*684 FILLER_10_1261
*685 FILLER_10_1273
*686 FILLER_10_133
*687 FILLER_10_139
*688 FILLER_10_141
*689 FILLER_10_153
*690 FILLER_10_165
*691 FILLER_10_177
*692 FILLER_10_18
*693 FILLER_10_189
*694 FILLER_10_195
*695 FILLER_10_197
*696 FILLER_10_209
*697 FILLER_10_221
*698 FILLER_10_233
*699 FILLER_10_245
*700 FILLER_10_251
*701 FILLER_10_253
*702 FILLER_10_26
*703 FILLER_10_265
*704 FILLER_10_277
*705 FILLER_10_289
*706 FILLER_10_29
*707 FILLER_10_301
*708 FILLER_10_307
*709 FILLER_10_309
*710 FILLER_10_321
*711 FILLER_10_333
*712 FILLER_10_345
*713 FILLER_10_357
*714 FILLER_10_363
*715 FILLER_10_365
*716 FILLER_10_377
*717 FILLER_10_389
*718 FILLER_10_401
*719 FILLER_10_41
*720 FILLER_10_413
*721 FILLER_10_419
*722 FILLER_10_421
*723 FILLER_10_433
*724 FILLER_10_445
*725 FILLER_10_457
*726 FILLER_10_469
*727 FILLER_10_475
*728 FILLER_10_477
*729 FILLER_10_489
*730 FILLER_10_501
*731 FILLER_10_513
*732 FILLER_10_525
*733 FILLER_10_53
*734 FILLER_10_531
*735 FILLER_10_533
*736 FILLER_10_545
*737 FILLER_10_557
*738 FILLER_10_569
*739 FILLER_10_581
*740 FILLER_10_587
*741 FILLER_10_589
*742 FILLER_10_6
*743 FILLER_10_601
*744 FILLER_10_613
*745 FILLER_10_625
*746 FILLER_10_637
*747 FILLER_10_643
*748 FILLER_10_645
*749 FILLER_10_65
*750 FILLER_10_657
*751 FILLER_10_669
*752 FILLER_10_681
*753 FILLER_10_693
*754 FILLER_10_699
*755 FILLER_10_701
*756 FILLER_10_713
*757 FILLER_10_725
*758 FILLER_10_737
*759 FILLER_10_749
*760 FILLER_10_755
*761 FILLER_10_757
*762 FILLER_10_769
*763 FILLER_10_77
*764 FILLER_10_781
*765 FILLER_10_793
*766 FILLER_10_805
*767 FILLER_10_811
*768 FILLER_10_813
*769 FILLER_10_825
*770 FILLER_10_83
*771 FILLER_10_837
*772 FILLER_10_849
*773 FILLER_10_85
*774 FILLER_10_861
*775 FILLER_10_867
*776 FILLER_10_869
*777 FILLER_10_881
*778 FILLER_10_893
*779 FILLER_10_905
*780 FILLER_10_917
*781 FILLER_10_923
*782 FILLER_10_925
*783 FILLER_10_937
*784 FILLER_10_949
*785 FILLER_10_961
*786 FILLER_10_97
*787 FILLER_10_973
*788 FILLER_10_979
*789 FILLER_10_981
*790 FILLER_10_993
*791 FILLER_11_1001
*792 FILLER_11_1007
*793 FILLER_11_1009
*794 FILLER_11_1021
*795 FILLER_11_1033
*796 FILLER_11_1045
*797 FILLER_11_105
*798 FILLER_11_1057
*799 FILLER_11_1063
*800 FILLER_11_1065
*801 FILLER_11_1077
*802 FILLER_11_1089
*803 FILLER_11_1101
*804 FILLER_11_111
*805 FILLER_11_1113
*806 FILLER_11_1119
*807 FILLER_11_1121
*808 FILLER_11_113
*809 FILLER_11_1133
*810 FILLER_11_1145
*811 FILLER_11_1157
*812 FILLER_11_1169
*813 FILLER_11_1175
*814 FILLER_11_1177
*815 FILLER_11_1189
*816 FILLER_11_1201
*817 FILLER_11_1213
*818 FILLER_11_1225
*819 FILLER_11_1231
*820 FILLER_11_1233
*821 FILLER_11_1245
*822 FILLER_11_125
*823 FILLER_11_1257
*824 FILLER_11_1269
*825 FILLER_11_137
*826 FILLER_11_149
*827 FILLER_11_15
*828 FILLER_11_161
*829 FILLER_11_167
*830 FILLER_11_169
*831 FILLER_11_181
*832 FILLER_11_193
*833 FILLER_11_205
*834 FILLER_11_217
*835 FILLER_11_223
*836 FILLER_11_235
*837 FILLER_11_247
*838 FILLER_11_259
*839 FILLER_11_27
*840 FILLER_11_271
*841 FILLER_11_279
*842 FILLER_11_281
*843 FILLER_11_293
*844 FILLER_11_3
*845 FILLER_11_305
*846 FILLER_11_317
*847 FILLER_11_329
*848 FILLER_11_335
*849 FILLER_11_337
*850 FILLER_11_349
*851 FILLER_11_361
*852 FILLER_11_373
*853 FILLER_11_385
*854 FILLER_11_39
*855 FILLER_11_391
*856 FILLER_11_393
*857 FILLER_11_405
*858 FILLER_11_417
*859 FILLER_11_429
*860 FILLER_11_441
*861 FILLER_11_447
*862 FILLER_11_449
*863 FILLER_11_461
*864 FILLER_11_473
*865 FILLER_11_485
*866 FILLER_11_497
*867 FILLER_11_503
*868 FILLER_11_505
*869 FILLER_11_51
*870 FILLER_11_517
*871 FILLER_11_529
*872 FILLER_11_541
*873 FILLER_11_55
*874 FILLER_11_553
*875 FILLER_11_559
*876 FILLER_11_561
*877 FILLER_11_57
*878 FILLER_11_573
*879 FILLER_11_585
*880 FILLER_11_597
*881 FILLER_11_609
*882 FILLER_11_615
*883 FILLER_11_617
*884 FILLER_11_629
*885 FILLER_11_641
*886 FILLER_11_653
*887 FILLER_11_665
*888 FILLER_11_671
*889 FILLER_11_673
*890 FILLER_11_685
*891 FILLER_11_69
*892 FILLER_11_697
*893 FILLER_11_709
*894 FILLER_11_721
*895 FILLER_11_727
*896 FILLER_11_729
*897 FILLER_11_741
*898 FILLER_11_753
*899 FILLER_11_765
*900 FILLER_11_777
*901 FILLER_11_783
*902 FILLER_11_785
*903 FILLER_11_797
*904 FILLER_11_809
*905 FILLER_11_81
*906 FILLER_11_821
*907 FILLER_11_833
*908 FILLER_11_839
*909 FILLER_11_841
*910 FILLER_11_853
*911 FILLER_11_865
*912 FILLER_11_877
*913 FILLER_11_889
*914 FILLER_11_895
*915 FILLER_11_897
*916 FILLER_11_909
*917 FILLER_11_921
*918 FILLER_11_93
*919 FILLER_11_933
*920 FILLER_11_945
*921 FILLER_11_951
*922 FILLER_11_953
*923 FILLER_11_965
*924 FILLER_11_977
*925 FILLER_11_989
*926 FILLER_12_1005
*927 FILLER_12_1017
*928 FILLER_12_1029
*929 FILLER_12_1035
*930 FILLER_12_1037
*931 FILLER_12_1049
*932 FILLER_12_1061
*933 FILLER_12_1073
*934 FILLER_12_1085
*935 FILLER_12_109
*936 FILLER_12_1091
*937 FILLER_12_1093
*938 FILLER_12_1105
*939 FILLER_12_1117
*940 FILLER_12_1129
*941 FILLER_12_1141
*942 FILLER_12_1147
*943 FILLER_12_1149
*944 FILLER_12_1161
*945 FILLER_12_1173
*946 FILLER_12_1185
*947 FILLER_12_1197
*948 FILLER_12_1203
*949 FILLER_12_1205
*950 FILLER_12_121
*951 FILLER_12_1217
*952 FILLER_12_1229
*953 FILLER_12_1241
*954 FILLER_12_1253
*955 FILLER_12_1259
*956 FILLER_12_1261
*957 FILLER_12_1273
*958 FILLER_12_133
*959 FILLER_12_139
*960 FILLER_12_141
*961 FILLER_12_15
*962 FILLER_12_153
*963 FILLER_12_165
*964 FILLER_12_177
*965 FILLER_12_189
*966 FILLER_12_195
*967 FILLER_12_197
*968 FILLER_12_209
*969 FILLER_12_221
*970 FILLER_12_233
*971 FILLER_12_245
*972 FILLER_12_251
*973 FILLER_12_253
*974 FILLER_12_265
*975 FILLER_12_27
*976 FILLER_12_277
*977 FILLER_12_289
*978 FILLER_12_29
*979 FILLER_12_3
*980 FILLER_12_301
*981 FILLER_12_307
*982 FILLER_12_309
*983 FILLER_12_321
*984 FILLER_12_333
*985 FILLER_12_345
*986 FILLER_12_357
*987 FILLER_12_363
*988 FILLER_12_365
*989 FILLER_12_377
*990 FILLER_12_389
*991 FILLER_12_401
*992 FILLER_12_41
*993 FILLER_12_413
*994 FILLER_12_419
*995 FILLER_12_421
*996 FILLER_12_433
*997 FILLER_12_445
*998 FILLER_12_457
*999 FILLER_12_469
*1000 FILLER_12_475
*1001 FILLER_12_477
*1002 FILLER_12_489
*1003 FILLER_12_501
*1004 FILLER_12_513
*1005 FILLER_12_525
*1006 FILLER_12_53
*1007 FILLER_12_531
*1008 FILLER_12_533
*1009 FILLER_12_545
*1010 FILLER_12_557
*1011 FILLER_12_569
*1012 FILLER_12_581
*1013 FILLER_12_587
*1014 FILLER_12_589
*1015 FILLER_12_601
*1016 FILLER_12_613
*1017 FILLER_12_625
*1018 FILLER_12_637
*1019 FILLER_12_643
*1020 FILLER_12_645
*1021 FILLER_12_65
*1022 FILLER_12_657
*1023 FILLER_12_669
*1024 FILLER_12_681
*1025 FILLER_12_693
*1026 FILLER_12_699
*1027 FILLER_12_701
*1028 FILLER_12_713
*1029 FILLER_12_725
*1030 FILLER_12_737
*1031 FILLER_12_749
*1032 FILLER_12_755
*1033 FILLER_12_757
*1034 FILLER_12_769
*1035 FILLER_12_77
*1036 FILLER_12_781
*1037 FILLER_12_793
*1038 FILLER_12_805
*1039 FILLER_12_811
*1040 FILLER_12_813
*1041 FILLER_12_825
*1042 FILLER_12_83
*1043 FILLER_12_837
*1044 FILLER_12_849
*1045 FILLER_12_85
*1046 FILLER_12_861
*1047 FILLER_12_867
*1048 FILLER_12_869
*1049 FILLER_12_881
*1050 FILLER_12_893
*1051 FILLER_12_905
*1052 FILLER_12_917
*1053 FILLER_12_923
*1054 FILLER_12_925
*1055 FILLER_12_937
*1056 FILLER_12_949
*1057 FILLER_12_961
*1058 FILLER_12_97
*1059 FILLER_12_973
*1060 FILLER_12_979
*1061 FILLER_12_981
*1062 FILLER_12_993
*1063 FILLER_13_1001
*1064 FILLER_13_1007
*1065 FILLER_13_1009
*1066 FILLER_13_1021
*1067 FILLER_13_1033
*1068 FILLER_13_1045
*1069 FILLER_13_105
*1070 FILLER_13_1057
*1071 FILLER_13_1063
*1072 FILLER_13_1065
*1073 FILLER_13_1077
*1074 FILLER_13_1089
*1075 FILLER_13_1101
*1076 FILLER_13_111
*1077 FILLER_13_1113
*1078 FILLER_13_1119
*1079 FILLER_13_1121
*1080 FILLER_13_113
*1081 FILLER_13_1133
*1082 FILLER_13_1145
*1083 FILLER_13_1157
*1084 FILLER_13_1169
*1085 FILLER_13_1175
*1086 FILLER_13_1177
*1087 FILLER_13_1189
*1088 FILLER_13_1201
*1089 FILLER_13_1213
*1090 FILLER_13_1225
*1091 FILLER_13_1231
*1092 FILLER_13_1233
*1093 FILLER_13_1245
*1094 FILLER_13_125
*1095 FILLER_13_1257
*1096 FILLER_13_1269
*1097 FILLER_13_137
*1098 FILLER_13_149
*1099 FILLER_13_161
*1100 FILLER_13_167
*1101 FILLER_13_169
*1102 FILLER_13_181
*1103 FILLER_13_19
*1104 FILLER_13_193
*1105 FILLER_13_205
*1106 FILLER_13_217
*1107 FILLER_13_223
*1108 FILLER_13_225
*1109 FILLER_13_237
*1110 FILLER_13_249
*1111 FILLER_13_261
*1112 FILLER_13_273
*1113 FILLER_13_279
*1114 FILLER_13_281
*1115 FILLER_13_293
*1116 FILLER_13_305
*1117 FILLER_13_31
*1118 FILLER_13_317
*1119 FILLER_13_329
*1120 FILLER_13_335
*1121 FILLER_13_337
*1122 FILLER_13_349
*1123 FILLER_13_361
*1124 FILLER_13_373
*1125 FILLER_13_385
*1126 FILLER_13_391
*1127 FILLER_13_393
*1128 FILLER_13_405
*1129 FILLER_13_417
*1130 FILLER_13_429
*1131 FILLER_13_43
*1132 FILLER_13_441
*1133 FILLER_13_447
*1134 FILLER_13_449
*1135 FILLER_13_461
*1136 FILLER_13_473
*1137 FILLER_13_485
*1138 FILLER_13_497
*1139 FILLER_13_503
*1140 FILLER_13_505
*1141 FILLER_13_517
*1142 FILLER_13_529
*1143 FILLER_13_541
*1144 FILLER_13_55
*1145 FILLER_13_553
*1146 FILLER_13_559
*1147 FILLER_13_561
*1148 FILLER_13_57
*1149 FILLER_13_573
*1150 FILLER_13_585
*1151 FILLER_13_597
*1152 FILLER_13_609
*1153 FILLER_13_615
*1154 FILLER_13_617
*1155 FILLER_13_629
*1156 FILLER_13_641
*1157 FILLER_13_653
*1158 FILLER_13_665
*1159 FILLER_13_671
*1160 FILLER_13_673
*1161 FILLER_13_685
*1162 FILLER_13_69
*1163 FILLER_13_697
*1164 FILLER_13_7
*1165 FILLER_13_709
*1166 FILLER_13_721
*1167 FILLER_13_727
*1168 FILLER_13_729
*1169 FILLER_13_741
*1170 FILLER_13_753
*1171 FILLER_13_765
*1172 FILLER_13_777
*1173 FILLER_13_783
*1174 FILLER_13_785
*1175 FILLER_13_797
*1176 FILLER_13_809
*1177 FILLER_13_81
*1178 FILLER_13_821
*1179 FILLER_13_833
*1180 FILLER_13_839
*1181 FILLER_13_841
*1182 FILLER_13_853
*1183 FILLER_13_865
*1184 FILLER_13_877
*1185 FILLER_13_889
*1186 FILLER_13_895
*1187 FILLER_13_897
*1188 FILLER_13_909
*1189 FILLER_13_921
*1190 FILLER_13_93
*1191 FILLER_13_933
*1192 FILLER_13_945
*1193 FILLER_13_951
*1194 FILLER_13_953
*1195 FILLER_13_965
*1196 FILLER_13_977
*1197 FILLER_13_989
*1198 FILLER_14_1005
*1199 FILLER_14_1017
*1200 FILLER_14_1029
*1201 FILLER_14_1035
*1202 FILLER_14_1037
*1203 FILLER_14_1049
*1204 FILLER_14_1061
*1205 FILLER_14_1073
*1206 FILLER_14_1085
*1207 FILLER_14_109
*1208 FILLER_14_1091
*1209 FILLER_14_1093
*1210 FILLER_14_1105
*1211 FILLER_14_1117
*1212 FILLER_14_1129
*1213 FILLER_14_1141
*1214 FILLER_14_1147
*1215 FILLER_14_1149
*1216 FILLER_14_1161
*1217 FILLER_14_1173
*1218 FILLER_14_1185
*1219 FILLER_14_1197
*1220 FILLER_14_1203
*1221 FILLER_14_1205
*1222 FILLER_14_121
*1223 FILLER_14_1217
*1224 FILLER_14_1229
*1225 FILLER_14_1241
*1226 FILLER_14_1253
*1227 FILLER_14_1259
*1228 FILLER_14_1261
*1229 FILLER_14_1273
*1230 FILLER_14_133
*1231 FILLER_14_139
*1232 FILLER_14_141
*1233 FILLER_14_15
*1234 FILLER_14_153
*1235 FILLER_14_165
*1236 FILLER_14_177
*1237 FILLER_14_189
*1238 FILLER_14_195
*1239 FILLER_14_197
*1240 FILLER_14_209
*1241 FILLER_14_221
*1242 FILLER_14_233
*1243 FILLER_14_245
*1244 FILLER_14_251
*1245 FILLER_14_253
*1246 FILLER_14_265
*1247 FILLER_14_27
*1248 FILLER_14_277
*1249 FILLER_14_289
*1250 FILLER_14_29
*1251 FILLER_14_3
*1252 FILLER_14_301
*1253 FILLER_14_307
*1254 FILLER_14_309
*1255 FILLER_14_321
*1256 FILLER_14_333
*1257 FILLER_14_345
*1258 FILLER_14_357
*1259 FILLER_14_363
*1260 FILLER_14_365
*1261 FILLER_14_377
*1262 FILLER_14_389
*1263 FILLER_14_401
*1264 FILLER_14_41
*1265 FILLER_14_413
*1266 FILLER_14_419
*1267 FILLER_14_421
*1268 FILLER_14_433
*1269 FILLER_14_445
*1270 FILLER_14_457
*1271 FILLER_14_469
*1272 FILLER_14_475
*1273 FILLER_14_477
*1274 FILLER_14_489
*1275 FILLER_14_501
*1276 FILLER_14_513
*1277 FILLER_14_525
*1278 FILLER_14_53
*1279 FILLER_14_531
*1280 FILLER_14_533
*1281 FILLER_14_545
*1282 FILLER_14_557
*1283 FILLER_14_569
*1284 FILLER_14_581
*1285 FILLER_14_587
*1286 FILLER_14_589
*1287 FILLER_14_601
*1288 FILLER_14_613
*1289 FILLER_14_625
*1290 FILLER_14_637
*1291 FILLER_14_643
*1292 FILLER_14_645
*1293 FILLER_14_65
*1294 FILLER_14_657
*1295 FILLER_14_669
*1296 FILLER_14_681
*1297 FILLER_14_693
*1298 FILLER_14_699
*1299 FILLER_14_701
*1300 FILLER_14_713
*1301 FILLER_14_725
*1302 FILLER_14_737
*1303 FILLER_14_749
*1304 FILLER_14_755
*1305 FILLER_14_757
*1306 FILLER_14_769
*1307 FILLER_14_77
*1308 FILLER_14_781
*1309 FILLER_14_793
*1310 FILLER_14_805
*1311 FILLER_14_811
*1312 FILLER_14_813
*1313 FILLER_14_825
*1314 FILLER_14_83
*1315 FILLER_14_837
*1316 FILLER_14_849
*1317 FILLER_14_85
*1318 FILLER_14_861
*1319 FILLER_14_867
*1320 FILLER_14_869
*1321 FILLER_14_881
*1322 FILLER_14_893
*1323 FILLER_14_905
*1324 FILLER_14_917
*1325 FILLER_14_923
*1326 FILLER_14_925
*1327 FILLER_14_937
*1328 FILLER_14_949
*1329 FILLER_14_961
*1330 FILLER_14_97
*1331 FILLER_14_973
*1332 FILLER_14_979
*1333 FILLER_14_981
*1334 FILLER_14_993
*1335 FILLER_15_1001
*1336 FILLER_15_1007
*1337 FILLER_15_1009
*1338 FILLER_15_1021
*1339 FILLER_15_1033
*1340 FILLER_15_1045
*1341 FILLER_15_105
*1342 FILLER_15_1057
*1343 FILLER_15_1063
*1344 FILLER_15_1065
*1345 FILLER_15_1077
*1346 FILLER_15_1089
*1347 FILLER_15_1101
*1348 FILLER_15_111
*1349 FILLER_15_1113
*1350 FILLER_15_1119
*1351 FILLER_15_1121
*1352 FILLER_15_113
*1353 FILLER_15_1133
*1354 FILLER_15_1145
*1355 FILLER_15_1157
*1356 FILLER_15_1169
*1357 FILLER_15_1175
*1358 FILLER_15_1177
*1359 FILLER_15_1189
*1360 FILLER_15_1201
*1361 FILLER_15_1213
*1362 FILLER_15_1225
*1363 FILLER_15_1231
*1364 FILLER_15_1233
*1365 FILLER_15_1245
*1366 FILLER_15_125
*1367 FILLER_15_1257
*1368 FILLER_15_1269
*1369 FILLER_15_137
*1370 FILLER_15_149
*1371 FILLER_15_15
*1372 FILLER_15_161
*1373 FILLER_15_167
*1374 FILLER_15_169
*1375 FILLER_15_181
*1376 FILLER_15_193
*1377 FILLER_15_205
*1378 FILLER_15_217
*1379 FILLER_15_223
*1380 FILLER_15_225
*1381 FILLER_15_237
*1382 FILLER_15_249
*1383 FILLER_15_261
*1384 FILLER_15_27
*1385 FILLER_15_273
*1386 FILLER_15_279
*1387 FILLER_15_281
*1388 FILLER_15_293
*1389 FILLER_15_3
*1390 FILLER_15_305
*1391 FILLER_15_317
*1392 FILLER_15_329
*1393 FILLER_15_335
*1394 FILLER_15_337
*1395 FILLER_15_349
*1396 FILLER_15_361
*1397 FILLER_15_373
*1398 FILLER_15_385
*1399 FILLER_15_39
*1400 FILLER_15_391
*1401 FILLER_15_393
*1402 FILLER_15_405
*1403 FILLER_15_417
*1404 FILLER_15_429
*1405 FILLER_15_441
*1406 FILLER_15_447
*1407 FILLER_15_449
*1408 FILLER_15_461
*1409 FILLER_15_473
*1410 FILLER_15_485
*1411 FILLER_15_497
*1412 FILLER_15_503
*1413 FILLER_15_505
*1414 FILLER_15_51
*1415 FILLER_15_517
*1416 FILLER_15_529
*1417 FILLER_15_541
*1418 FILLER_15_55
*1419 FILLER_15_553
*1420 FILLER_15_559
*1421 FILLER_15_561
*1422 FILLER_15_57
*1423 FILLER_15_573
*1424 FILLER_15_585
*1425 FILLER_15_597
*1426 FILLER_15_609
*1427 FILLER_15_615
*1428 FILLER_15_617
*1429 FILLER_15_629
*1430 FILLER_15_641
*1431 FILLER_15_653
*1432 FILLER_15_665
*1433 FILLER_15_671
*1434 FILLER_15_673
*1435 FILLER_15_685
*1436 FILLER_15_69
*1437 FILLER_15_697
*1438 FILLER_15_709
*1439 FILLER_15_721
*1440 FILLER_15_727
*1441 FILLER_15_729
*1442 FILLER_15_741
*1443 FILLER_15_753
*1444 FILLER_15_765
*1445 FILLER_15_777
*1446 FILLER_15_783
*1447 FILLER_15_785
*1448 FILLER_15_797
*1449 FILLER_15_809
*1450 FILLER_15_81
*1451 FILLER_15_821
*1452 FILLER_15_833
*1453 FILLER_15_839
*1454 FILLER_15_841
*1455 FILLER_15_853
*1456 FILLER_15_865
*1457 FILLER_15_877
*1458 FILLER_15_889
*1459 FILLER_15_895
*1460 FILLER_15_897
*1461 FILLER_15_909
*1462 FILLER_15_921
*1463 FILLER_15_93
*1464 FILLER_15_933
*1465 FILLER_15_945
*1466 FILLER_15_951
*1467 FILLER_15_953
*1468 FILLER_15_965
*1469 FILLER_15_977
*1470 FILLER_15_989
*1471 FILLER_16_1005
*1472 FILLER_16_1017
*1473 FILLER_16_1029
*1474 FILLER_16_1035
*1475 FILLER_16_1037
*1476 FILLER_16_1049
*1477 FILLER_16_1061
*1478 FILLER_16_1073
*1479 FILLER_16_1085
*1480 FILLER_16_109
*1481 FILLER_16_1091
*1482 FILLER_16_1093
*1483 FILLER_16_11
*1484 FILLER_16_1105
*1485 FILLER_16_1117
*1486 FILLER_16_1129
*1487 FILLER_16_1141
*1488 FILLER_16_1147
*1489 FILLER_16_1149
*1490 FILLER_16_1161
*1491 FILLER_16_1173
*1492 FILLER_16_1185
*1493 FILLER_16_1197
*1494 FILLER_16_1203
*1495 FILLER_16_1205
*1496 FILLER_16_121
*1497 FILLER_16_1217
*1498 FILLER_16_1229
*1499 FILLER_16_1241
*1500 FILLER_16_1253
*1501 FILLER_16_1259
*1502 FILLER_16_1261
*1503 FILLER_16_1273
*1504 FILLER_16_133
*1505 FILLER_16_139
*1506 FILLER_16_141
*1507 FILLER_16_153
*1508 FILLER_16_165
*1509 FILLER_16_177
*1510 FILLER_16_189
*1511 FILLER_16_195
*1512 FILLER_16_197
*1513 FILLER_16_209
*1514 FILLER_16_221
*1515 FILLER_16_23
*1516 FILLER_16_233
*1517 FILLER_16_245
*1518 FILLER_16_251
*1519 FILLER_16_253
*1520 FILLER_16_265
*1521 FILLER_16_27
*1522 FILLER_16_277
*1523 FILLER_16_289
*1524 FILLER_16_29
*1525 FILLER_16_3
*1526 FILLER_16_301
*1527 FILLER_16_307
*1528 FILLER_16_309
*1529 FILLER_16_321
*1530 FILLER_16_333
*1531 FILLER_16_345
*1532 FILLER_16_357
*1533 FILLER_16_363
*1534 FILLER_16_365
*1535 FILLER_16_377
*1536 FILLER_16_389
*1537 FILLER_16_401
*1538 FILLER_16_41
*1539 FILLER_16_413
*1540 FILLER_16_419
*1541 FILLER_16_421
*1542 FILLER_16_433
*1543 FILLER_16_445
*1544 FILLER_16_457
*1545 FILLER_16_469
*1546 FILLER_16_475
*1547 FILLER_16_477
*1548 FILLER_16_489
*1549 FILLER_16_501
*1550 FILLER_16_513
*1551 FILLER_16_525
*1552 FILLER_16_53
*1553 FILLER_16_531
*1554 FILLER_16_533
*1555 FILLER_16_545
*1556 FILLER_16_557
*1557 FILLER_16_569
*1558 FILLER_16_581
*1559 FILLER_16_587
*1560 FILLER_16_589
*1561 FILLER_16_601
*1562 FILLER_16_613
*1563 FILLER_16_625
*1564 FILLER_16_637
*1565 FILLER_16_643
*1566 FILLER_16_645
*1567 FILLER_16_65
*1568 FILLER_16_657
*1569 FILLER_16_669
*1570 FILLER_16_681
*1571 FILLER_16_693
*1572 FILLER_16_699
*1573 FILLER_16_701
*1574 FILLER_16_713
*1575 FILLER_16_725
*1576 FILLER_16_737
*1577 FILLER_16_749
*1578 FILLER_16_755
*1579 FILLER_16_757
*1580 FILLER_16_769
*1581 FILLER_16_77
*1582 FILLER_16_781
*1583 FILLER_16_793
*1584 FILLER_16_805
*1585 FILLER_16_811
*1586 FILLER_16_813
*1587 FILLER_16_825
*1588 FILLER_16_83
*1589 FILLER_16_837
*1590 FILLER_16_849
*1591 FILLER_16_85
*1592 FILLER_16_861
*1593 FILLER_16_867
*1594 FILLER_16_869
*1595 FILLER_16_881
*1596 FILLER_16_893
*1597 FILLER_16_905
*1598 FILLER_16_917
*1599 FILLER_16_923
*1600 FILLER_16_925
*1601 FILLER_16_937
*1602 FILLER_16_949
*1603 FILLER_16_961
*1604 FILLER_16_97
*1605 FILLER_16_973
*1606 FILLER_16_979
*1607 FILLER_16_981
*1608 FILLER_16_993
*1609 FILLER_17_1001
*1610 FILLER_17_1007
*1611 FILLER_17_1009
*1612 FILLER_17_1021
*1613 FILLER_17_1033
*1614 FILLER_17_1045
*1615 FILLER_17_105
*1616 FILLER_17_1057
*1617 FILLER_17_1063
*1618 FILLER_17_1065
*1619 FILLER_17_1077
*1620 FILLER_17_1089
*1621 FILLER_17_1101
*1622 FILLER_17_111
*1623 FILLER_17_1113
*1624 FILLER_17_1119
*1625 FILLER_17_1121