*SPEF "ieee 1481-1999"
*DESIGN "Flash"
*DATE "11:11:11 Fri 11 11, 1111"
*VENDOR "OpenRCX"
*PROGRAM "Parallel Extraction"
*VERSION "1.0"
*DESIGN_FLOW "NAME_SCOPE LOCAL" "PIN_CAP NONE"
*DIVIDER /
*DELIMITER :
*BUS_DELIMITER []
*T_UNIT 1 NS
*C_UNIT 1 PF
*R_UNIT 1 OHM
*L_UNIT 1 HENRY

*NAME_MAP
*1 flash_csb
*2 flash_io0_read
*3 net242
*4 flash_io0_write
*5 flash_io1_read
*6 net238
*7 net239
*8 flash_sck
*9 sram_addr0[0]
*10 sram_addr0[1]
*11 sram_addr0[2]
*12 sram_addr0[3]
*13 sram_addr0[4]
*14 sram_addr0[5]
*15 sram_addr0[6]
*16 sram_addr0[7]
*17 sram_addr0[8]
*18 sram_addr1[0]
*19 sram_addr1[1]
*20 sram_addr1[2]
*21 sram_addr1[3]
*22 sram_addr1[4]
*23 sram_addr1[5]
*24 sram_addr1[6]
*25 sram_addr1[7]
*26 sram_addr1[8]
*27 sram_clk0
*28 sram_clk1
*29 sram_csb0
*30 sram_csb1
*31 sram_din0[0]
*32 sram_din0[10]
*33 sram_din0[11]
*34 sram_din0[12]
*35 sram_din0[13]
*36 sram_din0[14]
*37 sram_din0[15]
*38 sram_din0[16]
*39 sram_din0[17]
*40 sram_din0[18]
*41 sram_din0[19]
*42 sram_din0[1]
*43 sram_din0[20]
*44 sram_din0[21]
*45 sram_din0[22]
*46 sram_din0[23]
*47 sram_din0[24]
*48 sram_din0[25]
*49 sram_din0[26]
*50 sram_din0[27]
*51 sram_din0[28]
*52 sram_din0[29]
*53 sram_din0[2]
*54 sram_din0[30]
*55 sram_din0[31]
*56 sram_din0[3]
*57 sram_din0[4]
*58 sram_din0[5]
*59 sram_din0[6]
*60 sram_din0[7]
*61 sram_din0[8]
*62 sram_din0[9]
*63 sram_dout0[0]
*64 sram_dout0[10]
*65 sram_dout0[11]
*66 sram_dout0[12]
*67 sram_dout0[13]
*68 sram_dout0[14]
*69 sram_dout0[15]
*70 sram_dout0[16]
*71 sram_dout0[17]
*72 sram_dout0[18]
*73 sram_dout0[19]
*74 sram_dout0[1]
*75 sram_dout0[20]
*76 sram_dout0[21]
*77 sram_dout0[22]
*78 sram_dout0[23]
*79 sram_dout0[24]
*80 sram_dout0[25]
*81 sram_dout0[26]
*82 sram_dout0[27]
*83 sram_dout0[28]
*84 sram_dout0[29]
*85 sram_dout0[2]
*86 sram_dout0[30]
*87 sram_dout0[31]
*88 sram_dout0[3]
*89 sram_dout0[4]
*90 sram_dout0[5]
*91 sram_dout0[6]
*92 sram_dout0[7]
*93 sram_dout0[8]
*94 sram_dout0[9]
*95 sram_dout1[0]
*96 sram_dout1[10]
*97 sram_dout1[11]
*98 sram_dout1[12]
*99 sram_dout1[13]
*100 sram_dout1[14]
*101 sram_dout1[15]
*102 sram_dout1[16]
*103 sram_dout1[17]
*104 sram_dout1[18]
*105 sram_dout1[19]
*106 sram_dout1[1]
*107 sram_dout1[20]
*108 sram_dout1[21]
*109 sram_dout1[22]
*110 sram_dout1[23]
*111 sram_dout1[24]
*112 sram_dout1[25]
*113 sram_dout1[26]
*114 sram_dout1[27]
*115 sram_dout1[28]
*116 sram_dout1[29]
*117 sram_dout1[2]
*118 sram_dout1[30]
*119 sram_dout1[31]
*120 sram_dout1[3]
*121 sram_dout1[4]
*122 sram_dout1[5]
*123 sram_dout1[6]
*124 sram_dout1[7]
*125 sram_dout1[8]
*126 sram_dout1[9]
*127 net240
*128 net243
*129 net244
*130 net245
*131 net246
*134 wb_ack_o
*135 wb_adr_i[0]
*136 wb_adr_i[10]
*137 wb_adr_i[11]
*138 wb_adr_i[12]
*139 wb_adr_i[13]
*140 wb_adr_i[14]
*141 wb_adr_i[15]
*142 wb_adr_i[16]
*143 wb_adr_i[17]
*144 wb_adr_i[18]
*145 wb_adr_i[19]
*146 wb_adr_i[1]
*147 wb_adr_i[20]
*148 wb_adr_i[21]
*149 wb_adr_i[22]
*150 wb_adr_i[23]
*151 wb_adr_i[2]
*152 wb_adr_i[3]
*153 wb_adr_i[4]
*154 wb_adr_i[5]
*155 wb_adr_i[6]
*156 wb_adr_i[7]
*157 wb_adr_i[8]
*158 wb_adr_i[9]
*159 wb_clk_i
*160 wb_cyc_i
*161 wb_data_i[0]
*162 wb_data_i[10]
*163 wb_data_i[11]
*164 wb_data_i[12]
*165 wb_data_i[13]
*166 wb_data_i[14]
*167 wb_data_i[15]
*168 wb_data_i[16]
*169 wb_data_i[17]
*170 wb_data_i[18]
*171 wb_data_i[19]
*172 wb_data_i[1]
*173 wb_data_i[20]
*174 wb_data_i[21]
*175 wb_data_i[22]
*176 wb_data_i[23]
*177 wb_data_i[24]
*178 wb_data_i[25]
*179 wb_data_i[26]
*180 wb_data_i[27]
*181 wb_data_i[28]
*182 wb_data_i[29]
*183 wb_data_i[2]
*184 wb_data_i[30]
*185 wb_data_i[31]
*186 wb_data_i[3]
*187 wb_data_i[4]
*188 wb_data_i[5]
*189 wb_data_i[6]
*190 wb_data_i[7]
*191 wb_data_i[8]
*192 wb_data_i[9]
*193 wb_data_o[0]
*194 wb_data_o[10]
*195 wb_data_o[11]
*196 wb_data_o[12]
*197 wb_data_o[13]
*198 wb_data_o[14]
*199 wb_data_o[15]
*200 wb_data_o[16]
*201 wb_data_o[17]
*202 wb_data_o[18]
*203 wb_data_o[19]
*204 wb_data_o[1]
*205 wb_data_o[20]
*206 wb_data_o[21]
*207 wb_data_o[22]
*208 wb_data_o[23]
*209 wb_data_o[24]
*210 wb_data_o[25]
*211 wb_data_o[26]
*212 wb_data_o[27]
*213 wb_data_o[28]
*214 wb_data_o[29]
*215 wb_data_o[2]
*216 wb_data_o[30]
*217 wb_data_o[31]
*218 wb_data_o[3]
*219 wb_data_o[4]
*220 wb_data_o[5]
*221 wb_data_o[6]
*222 wb_data_o[7]
*223 wb_data_o[8]
*224 wb_data_o[9]
*225 net241
*226 wb_rst_i
*227 wb_sel_i[0]
*228 wb_sel_i[1]
*229 wb_sel_i[2]
*230 wb_sel_i[3]
*231 wb_stall_o
*232 wb_stb_i
*233 wb_we_i
*234 _0000_
*235 _0001_
*236 _0002_
*237 _0003_
*238 _0004_
*239 _0005_
*240 _0006_
*241 _0007_
*242 _0008_
*243 _0009_
*244 _0010_
*245 _0011_
*246 _0012_
*247 _0013_
*248 _0014_
*249 _0015_
*250 _0016_
*251 _0017_
*252 _0018_
*253 _0019_
*254 _0020_
*255 _0021_
*256 _0022_
*257 _0023_
*258 _0024_
*259 _0025_
*260 _0026_
*261 _0027_
*262 _0028_
*263 _0029_
*264 _0030_
*265 _0031_
*266 _0032_
*267 _0033_
*268 _0034_
*269 _0035_
*270 _0036_
*271 _0037_
*272 _0038_
*273 _0039_
*274 _0040_
*275 _0041_
*276 _0042_
*277 _0043_
*278 _0044_
*279 _0045_
*280 _0046_
*281 _0047_
*282 _0048_
*283 _0049_
*284 _0050_
*285 _0051_
*286 _0052_
*287 _0053_
*288 _0054_
*289 _0055_
*290 _0056_
*291 _0057_
*292 _0058_
*293 _0059_
*294 _0060_
*295 _0061_
*296 _0062_
*297 _0063_
*298 _0064_
*299 _0065_
*300 _0066_
*301 _0067_
*302 _0068_
*303 _0069_
*304 _0070_
*305 _0071_
*306 _0072_
*307 _0073_
*308 _0074_
*309 _0075_
*310 _0076_
*311 _0077_
*312 _0078_
*313 _0079_
*314 _0080_
*315 _0081_
*316 _0082_
*317 _0083_
*318 _0084_
*319 _0085_
*320 _0086_
*321 _0087_
*322 _0088_
*323 _0089_
*324 _0090_
*325 _0091_
*326 _0092_
*327 _0093_
*328 _0094_
*329 _0095_
*330 _0096_
*331 _0097_
*332 _0098_
*333 _0099_
*334 _0100_
*335 _0101_
*336 _0102_
*337 _0103_
*338 _0104_
*339 _0105_
*340 _0106_
*341 _0107_
*342 _0108_
*343 _0109_
*344 _0110_
*345 _0111_
*346 _0112_
*347 _0113_
*348 _0114_
*349 _0115_
*350 _0116_
*351 _0117_
*352 _0118_
*353 _0119_
*354 _0120_
*355 _0121_
*356 _0122_
*357 _0123_
*358 _0124_
*359 _0125_
*360 _0126_
*361 _0127_
*362 _0128_
*363 _0129_
*364 _0130_
*365 _0131_
*366 _0132_
*367 _0133_
*368 _0134_
*369 _0135_
*370 _0136_
*371 _0137_
*372 _0138_
*373 _0139_
*374 _0140_
*375 _0141_
*376 _0142_
*377 _0143_
*378 _0144_
*379 _0145_
*380 _0146_
*381 _0147_
*382 _0148_
*383 _0149_
*384 _0150_
*385 _0151_
*386 _0152_
*387 _0153_
*388 _0154_
*389 _0155_
*390 _0156_
*391 _0157_
*392 _0158_
*393 _0159_
*394 _0160_
*395 _0161_
*396 _0162_
*397 _0163_
*398 _0164_
*399 _0165_
*400 _0166_
*401 _0167_
*402 _0168_
*403 _0169_
*404 _0170_
*405 _0171_
*406 _0172_
*407 _0173_
*408 _0174_
*409 _0175_
*410 _0176_
*411 _0177_
*412 _0178_
*413 _0179_
*414 _0180_
*415 _0181_
*416 _0182_
*417 _0183_
*418 _0184_
*419 _0185_
*420 _0186_
*421 _0187_
*422 _0188_
*423 _0189_
*424 _0190_
*425 _0191_
*426 _0192_
*427 _0193_
*428 _0194_
*429 _0195_
*430 _0196_
*431 _0197_
*432 _0198_
*433 _0199_
*434 _0200_
*435 _0201_
*436 _0202_
*437 _0203_
*438 _0204_
*439 _0205_
*440 _0206_
*441 _0207_
*442 _0208_
*443 _0209_
*444 _0210_
*445 _0211_
*446 _0212_
*447 _0213_
*448 _0214_
*449 _0215_
*450 _0216_
*451 _0217_
*452 _0218_
*453 _0219_
*454 _0220_
*455 _0221_
*456 _0222_
*457 _0223_
*458 _0224_
*459 _0225_
*460 _0226_
*461 _0227_
*462 _0228_
*463 _0229_
*464 _0230_
*465 _0231_
*466 _0232_
*467 _0233_
*468 _0234_
*469 _0235_
*470 _0236_
*471 _0237_
*472 _0238_
*473 _0239_
*474 _0240_
*475 _0241_
*476 _0242_
*477 _0243_
*478 _0244_
*479 _0245_
*480 _0246_
*481 _0247_
*482 _0248_
*483 _0249_
*484 _0250_
*485 _0251_
*486 _0252_
*487 _0253_
*488 _0254_
*489 _0255_
*490 _0256_
*491 _0257_
*492 _0258_
*493 _0259_
*494 _0260_
*495 _0261_
*496 _0262_
*497 _0263_
*498 _0264_
*499 _0265_
*500 _0266_
*501 _0267_
*502 _0268_
*503 _0269_
*504 _0270_
*505 _0271_
*506 _0272_
*507 _0273_
*508 _0274_
*509 _0275_
*510 _0276_
*511 _0277_
*512 _0278_
*513 _0279_
*514 _0280_
*515 _0281_
*516 _0282_
*517 _0283_
*518 _0284_
*519 _0285_
*520 _0286_
*521 _0287_
*522 _0288_
*523 _0289_
*524 _0290_
*525 _0291_
*526 _0292_
*527 _0293_
*528 _0294_
*529 _0295_
*530 _0296_
*531 _0297_
*532 _0298_
*533 _0299_
*534 _0300_
*535 _0301_
*536 _0302_
*537 _0303_
*538 _0304_
*539 _0305_
*540 _0306_
*541 _0307_
*542 _0308_
*543 _0309_
*544 _0310_
*545 _0311_
*546 _0312_
*547 _0313_
*548 _0314_
*549 _0315_
*550 _0316_
*551 _0317_
*552 _0318_
*553 _0319_
*554 _0320_
*555 _0321_
*556 _0322_
*557 _0323_
*558 _0324_
*559 _0325_
*560 _0326_
*561 _0327_
*562 _0328_
*563 _0329_
*564 _0330_
*565 _0331_
*566 _0332_
*567 _0333_
*568 _0334_
*569 _0335_
*570 _0336_
*571 _0337_
*572 _0338_
*573 _0339_
*574 _0340_
*575 _0341_
*576 _0342_
*577 _0343_
*578 _0344_
*579 _0345_
*580 _0346_
*581 _0347_
*582 _0348_
*583 _0349_
*584 _0350_
*585 _0351_
*586 _0352_
*587 _0353_
*588 _0354_
*589 _0355_
*590 _0356_
*591 _0357_
*592 _0358_
*593 _0359_
*594 _0360_
*595 _0361_
*596 _0362_
*597 _0363_
*598 _0364_
*599 _0365_
*600 _0366_
*601 _0367_
*602 _0368_
*603 _0369_
*604 _0370_
*605 _0371_
*606 _0372_
*607 _0373_
*608 _0374_
*609 _0375_
*610 _0376_
*611 _0377_
*612 _0378_
*613 _0379_
*614 _0380_
*615 _0381_
*616 _0382_
*617 _0383_
*618 _0384_
*619 _0385_
*620 _0386_
*621 _0387_
*622 _0388_
*623 _0389_
*624 _0390_
*625 _0391_
*626 _0392_
*627 _0393_
*628 _0394_
*629 _0395_
*630 _0396_
*631 _0397_
*632 _0398_
*633 _0399_
*634 _0400_
*635 _0401_
*636 _0402_
*637 _0403_
*638 _0404_
*639 _0405_
*640 _0406_
*641 _0407_
*642 _0408_
*643 _0409_
*644 _0410_
*645 _0411_
*646 _0412_
*647 _0413_
*648 _0414_
*649 _0415_
*650 _0416_
*651 _0417_
*652 _0418_
*653 _0419_
*654 _0420_
*655 _0421_
*656 _0422_
*657 _0423_
*658 _0424_
*659 _0425_
*660 _0426_
*661 _0427_
*662 _0428_
*663 _0429_
*664 _0430_
*665 _0431_
*666 _0432_
*667 _0433_
*668 _0434_
*669 _0435_
*670 _0436_
*671 _0437_
*672 _0438_
*673 _0439_
*674 _0440_
*675 _0441_
*676 _0442_
*677 _0443_
*678 _0444_
*679 _0445_
*680 _0446_
*681 _0447_
*682 _0448_
*683 _0449_
*684 _0450_
*685 _0451_
*686 _0452_
*687 _0453_
*688 _0454_
*689 _0455_
*690 _0456_
*691 _0457_
*692 _0458_
*693 _0459_
*694 _0460_
*695 _0461_
*696 _0462_
*697 _0463_
*698 _0464_
*699 _0465_
*700 _0466_
*701 _0467_
*702 _0468_
*703 _0469_
*704 _0470_
*705 _0471_
*706 _0472_
*707 _0473_
*708 _0474_
*709 clknet_0_wb_clk_i
*710 clknet_4_0_0_wb_clk_i
*711 clknet_4_10_0_wb_clk_i
*712 clknet_4_11_0_wb_clk_i
*713 clknet_4_12_0_wb_clk_i
*714 clknet_4_13_0_wb_clk_i
*715 clknet_4_14_0_wb_clk_i
*716 clknet_4_15_0_wb_clk_i
*717 clknet_4_1_0_wb_clk_i
*718 clknet_4_2_0_wb_clk_i
*719 clknet_4_3_0_wb_clk_i
*720 clknet_4_4_0_wb_clk_i
*721 clknet_4_5_0_wb_clk_i
*722 clknet_4_6_0_wb_clk_i
*723 clknet_4_7_0_wb_clk_i
*724 clknet_4_8_0_wb_clk_i
*725 clknet_4_9_0_wb_clk_i
*726 flashBuffer\.baseAddress\[0\]
*727 flashBuffer\.baseAddress\[10\]
*728 flashBuffer\.baseAddress\[11\]
*729 flashBuffer\.baseAddress\[12\]
*730 flashBuffer\.baseAddress\[13\]
*731 flashBuffer\.baseAddress\[14\]
*732 flashBuffer\.baseAddress\[15\]
*733 flashBuffer\.baseAddress\[16\]
*734 flashBuffer\.baseAddress\[17\]
*735 flashBuffer\.baseAddress\[18\]
*736 flashBuffer\.baseAddress\[19\]
*737 flashBuffer\.baseAddress\[1\]
*738 flashBuffer\.baseAddress\[20\]
*739 flashBuffer\.baseAddress\[21\]
*740 flashBuffer\.baseAddress\[22\]
*741 flashBuffer\.baseAddress\[23\]
*742 flashBuffer\.baseAddress\[2\]
*743 flashBuffer\.baseAddress\[3\]
*744 flashBuffer\.baseAddress\[4\]
*745 flashBuffer\.baseAddress\[5\]
*746 flashBuffer\.baseAddress\[6\]
*747 flashBuffer\.baseAddress\[7\]
*748 flashBuffer\.baseAddress\[8\]
*749 flashBuffer\.baseAddress\[9\]
*750 flashBuffer\.cachedAddress\[11\]
*751 flashBuffer\.cachedAddress\[12\]
*752 flashBuffer\.cachedAddress\[13\]
*753 flashBuffer\.cachedAddress\[14\]
*754 flashBuffer\.cachedAddress\[15\]
*755 flashBuffer\.cachedAddress\[16\]
*756 flashBuffer\.cachedAddress\[17\]
*757 flashBuffer\.cachedAddress\[18\]
*758 flashBuffer\.cachedAddress\[19\]
*759 flashBuffer\.cachedAddress\[20\]
*760 flashBuffer\.cachedAddress\[21\]
*761 flashBuffer\.cachedAddress\[22\]
*762 flashBuffer\.cachedAddress\[23\]
*763 flashBuffer\.cachedCount\[0\]
*764 flashBuffer\.cachedCount\[1\]
*765 flashBuffer\.cachedCount\[2\]
*766 flashBuffer\.cachedCount\[3\]
*767 flashBuffer\.cachedCount\[4\]
*768 flashBuffer\.cachedCount\[5\]
*769 flashBuffer\.cachedCount\[6\]
*770 flashBuffer\.cachedCount\[7\]
*771 flashBuffer\.cachedCount\[8\]
*772 flashBuffer\.cachedCount\[9\]
*773 flashBuffer\.configuration
*774 flashBuffer\.flashCacheReadReady
*775 flashBuffer\.qspi_readDataValid
*776 flashBuffer\.qspi_requestData
*777 net1
*778 net10
*779 net100
*780 net101
*781 net102
*782 net103
*783 net104
*784 net105
*785 net106
*786 net107
*787 net108
*788 net109
*789 net11
*790 net110
*791 net111
*792 net112
*793 net113
*794 net114
*795 net115
*796 net116
*797 net117
*798 net118
*799 net119
*800 net12
*801 net120
*802 net121
*803 net122
*804 net123
*805 net124
*806 net125
*807 net126
*808 net127
*809 net128
*810 net129
*811 net13
*812 net130
*813 net131
*814 net132
*815 net133
*816 net134
*817 net135
*818 net136
*819 net137
*820 net138
*821 net139
*822 net14
*823 net140
*824 net141
*825 net142
*826 net143
*827 net144
*828 net145
*829 net146
*830 net147
*831 net148
*832 net149
*833 net15
*834 net150
*835 net151
*836 net152
*837 net153
*838 net154
*839 net155
*840 net156
*841 net157
*842 net158
*843 net159
*844 net16
*845 net160
*846 net161
*847 net162
*848 net163
*849 net164
*850 net165
*851 net166
*852 net167
*853 net168
*854 net169
*855 net17
*856 net170
*857 net171
*858 net172
*859 net173
*860 net174
*861 net175
*862 net176
*863 net177
*864 net178
*865 net179
*866 net18
*867 net180
*868 net181
*869 net182
*870 net183
*871 net184
*872 net185
*873 net186
*874 net187
*875 net188
*876 net189
*877 net19
*878 net190
*879 net191
*880 net192
*881 net193
*882 net194
*883 net195
*884 net196
*885 net197
*886 net198
*887 net199
*888 net2
*889 net20
*890 net200
*891 net201
*892 net202
*893 net203
*894 net204
*895 net205
*896 net206
*897 net207
*898 net208
*899 net209
*900 net21
*901 net210
*902 net211
*903 net212
*904 net213
*905 net214
*906 net215
*907 net216
*908 net217
*909 net218
*910 net219
*911 net22
*912 net220
*913 net221
*914 net222
*915 net223
*916 net224
*917 net225
*918 net226
*919 net227
*920 net228
*921 net229
*922 net23
*923 net230
*924 net231
*925 net232
*926 net233
*927 net234
*928 net235
*929 net236
*930 net237
*931 net24
*932 net25
*933 net26
*934 net27
*935 net28
*936 net29
*937 net3
*938 net30
*939 net31
*940 net32
*941 net33
*942 net34
*943 net35
*944 net36
*945 net37
*946 net38
*947 net39
*948 net4
*949 net40
*950 net41
*951 net42
*952 net43
*953 net44
*954 net45
*955 net46
*956 net47
*957 net48
*958 net49
*959 net5
*960 net50
*961 net51
*962 net52
*963 net53
*964 net54
*965 net55
*966 net56
*967 net57
*968 net58
*969 net59
*970 net6
*971 net60
*972 net61
*973 net62
*974 net63
*975 net64
*976 net65
*977 net66
*978 net67
*979 net68
*980 net69
*981 net7
*982 net70
*983 net71
*984 net72
*985 net73
*986 net74
*987 net75
*988 net76
*989 net77
*990 net78
*991 net79
*992 net8
*993 net80
*994 net81
*995 net82
*996 net83
*997 net84
*998 net85
*999 net86
*1000 net87
*1001 net88
*1002 net89
*1003 net9
*1004 net90
*1005 net91
*1006 net92
*1007 net93
*1008 net94
*1009 net95
*1010 net96
*1011 net97
*1012 net98
*1013 net99
*1014 qspiDevice\.bitCounter\[0\]
*1015 qspiDevice\.bitCounter\[1\]
*1016 qspiDevice\.bitCounter\[2\]
*1017 qspiDevice\.bitCounter\[3\]
*1018 qspiDevice\.bitCounter\[4\]
*1019 qspiDevice\.outputClock
*1020 qspiDevice\.register\.outputBit
*1021 qspiDevice\.resetState\[0\]
*1022 qspiDevice\.resetState\[1\]
*1023 qspiDevice\.settingAddress
*1024 qspiDevice\.state\[0\]
*1025 qspiDevice\.state\[1\]
*1026 wbPeripheralBusInterface\.currentAddress\[10\]
*1027 wbPeripheralBusInterface\.currentAddress\[11\]
*1028 wbPeripheralBusInterface\.currentAddress\[12\]
*1029 wbPeripheralBusInterface\.currentAddress\[13\]
*1030 wbPeripheralBusInterface\.currentAddress\[14\]
*1031 wbPeripheralBusInterface\.currentAddress\[15\]
*1032 wbPeripheralBusInterface\.currentAddress\[16\]
*1033 wbPeripheralBusInterface\.currentAddress\[17\]
*1034 wbPeripheralBusInterface\.currentAddress\[18\]
*1035 wbPeripheralBusInterface\.currentAddress\[19\]
*1036 wbPeripheralBusInterface\.currentAddress\[20\]
*1037 wbPeripheralBusInterface\.currentAddress\[21\]
*1038 wbPeripheralBusInterface\.currentAddress\[22\]
*1039 wbPeripheralBusInterface\.currentAddress\[23\]
*1040 wbPeripheralBusInterface\.currentAddress\[2\]
*1041 wbPeripheralBusInterface\.currentAddress\[3\]
*1042 wbPeripheralBusInterface\.currentAddress\[4\]
*1043 wbPeripheralBusInterface\.currentAddress\[5\]
*1044 wbPeripheralBusInterface\.currentAddress\[6\]
*1045 wbPeripheralBusInterface\.currentAddress\[7\]
*1046 wbPeripheralBusInterface\.currentAddress\[8\]
*1047 wbPeripheralBusInterface\.currentAddress\[9\]
*1048 wbPeripheralBusInterface\.currentByteSelect\[0\]
*1049 wbPeripheralBusInterface\.currentByteSelect\[1\]
*1050 wbPeripheralBusInterface\.currentByteSelect\[2\]
*1051 wbPeripheralBusInterface\.state\[0\]
*1052 wbPeripheralBusInterface\.state\[1\]
*1053 ANTENNA_1
*1054 ANTENNA_2
*1055 ANTENNA_3
*1056 FILLER_0_100
*1057 FILLER_0_110
*1058 FILLER_0_113
*1059 FILLER_0_118
*1060 FILLER_0_128
*1061 FILLER_0_138
*1062 FILLER_0_141
*1063 FILLER_0_146
*1064 FILLER_0_156
*1065 FILLER_0_16
*1066 FILLER_0_166
*1067 FILLER_0_169
*1068 FILLER_0_177
*1069 FILLER_0_184
*1070 FILLER_0_194
*1071 FILLER_0_197
*1072 FILLER_0_205
*1073 FILLER_0_212
*1074 FILLER_0_222
*1075 FILLER_0_225
*1076 FILLER_0_233
*1077 FILLER_0_240
*1078 FILLER_0_250
*1079 FILLER_0_253
*1080 FILLER_0_259
*1081 FILLER_0_26
*1082 FILLER_0_263
*1083 FILLER_0_270
*1084 FILLER_0_278
*1085 FILLER_0_281
*1086 FILLER_0_289
*1087 FILLER_0_29
*1088 FILLER_0_293
*1089 FILLER_0_3
*1090 FILLER_0_300
*1091 FILLER_0_309
*1092 FILLER_0_317
*1093 FILLER_0_323
*1094 FILLER_0_33
*1095 FILLER_0_330
*1096 FILLER_0_337
*1097 FILLER_0_345
*1098 FILLER_0_353
*1099 FILLER_0_360
*1100 FILLER_0_365
*1101 FILLER_0_375
*1102 FILLER_0_385
*1103 FILLER_0_391
*1104 FILLER_0_393
*1105 FILLER_0_40
*1106 FILLER_0_405
*1107 FILLER_0_413
*1108 FILLER_0_419
*1109 FILLER_0_421
*1110 FILLER_0_429
*1111 FILLER_0_439
*1112 FILLER_0_447
*1113 FILLER_0_449
*1114 FILLER_0_457
*1115 FILLER_0_467
*1116 FILLER_0_475
*1117 FILLER_0_477
*1118 FILLER_0_485
*1119 FILLER_0_495
*1120 FILLER_0_50
*1121 FILLER_0_503
*1122 FILLER_0_505
*1123 FILLER_0_513
*1124 FILLER_0_523
*1125 FILLER_0_531
*1126 FILLER_0_533
*1127 FILLER_0_541
*1128 FILLER_0_551
*1129 FILLER_0_559
*1130 FILLER_0_561
*1131 FILLER_0_569
*1132 FILLER_0_57
*1133 FILLER_0_579
*1134 FILLER_0_587
*1135 FILLER_0_589
*1136 FILLER_0_597
*1137 FILLER_0_607
*1138 FILLER_0_615
*1139 FILLER_0_617
*1140 FILLER_0_63
*1141 FILLER_0_70
*1142 FILLER_0_80
*1143 FILLER_0_85
*1144 FILLER_0_9
*1145 FILLER_0_90
*1146 FILLER_10_102
*1147 FILLER_10_112
*1148 FILLER_10_124
*1149 FILLER_10_130
*1150 FILLER_10_138
*1151 FILLER_10_141
*1152 FILLER_10_152
*1153 FILLER_10_164
*1154 FILLER_10_176
*1155 FILLER_10_184
*1156 FILLER_10_194
*1157 FILLER_10_197
*1158 FILLER_10_215
*1159 FILLER_10_22
*1160 FILLER_10_225
*1161 FILLER_10_237
*1162 FILLER_10_248
*1163 FILLER_10_253
*1164 FILLER_10_265
*1165 FILLER_10_285
*1166 FILLER_10_29
*1167 FILLER_10_297
*1168 FILLER_10_3
*1169 FILLER_10_305
*1170 FILLER_10_309
*1171 FILLER_10_321
*1172 FILLER_10_329
*1173 FILLER_10_335
*1174 FILLER_10_346
*1175 FILLER_10_356
*1176 FILLER_10_365
*1177 FILLER_10_374
*1178 FILLER_10_378
*1179 FILLER_10_395
*1180 FILLER_10_407
*1181 FILLER_10_419
*1182 FILLER_10_421
*1183 FILLER_10_430
*1184 FILLER_10_453
*1185 FILLER_10_465
*1186 FILLER_10_47
*1187 FILLER_10_473
*1188 FILLER_10_477
*1189 FILLER_10_489
*1190 FILLER_10_501
*1191 FILLER_10_513
*1192 FILLER_10_525
*1193 FILLER_10_531
*1194 FILLER_10_533
*1195 FILLER_10_545
*1196 FILLER_10_557
*1197 FILLER_10_569
*1198 FILLER_10_581
*1199 FILLER_10_587
*1200 FILLER_10_589
*1201 FILLER_10_59
*1202 FILLER_10_601
*1203 FILLER_10_613
*1204 FILLER_10_71
*1205 FILLER_10_78
*1206 FILLER_10_85
*1207 FILLER_10_93
*1208 FILLER_11_108
*1209 FILLER_11_11
*1210 FILLER_11_113
*1211 FILLER_11_120
*1212 FILLER_11_127
*1213 FILLER_11_135
*1214 FILLER_11_145
*1215 FILLER_11_155
*1216 FILLER_11_167
*1217 FILLER_11_169
*1218 FILLER_11_180
*1219 FILLER_11_19
*1220 FILLER_11_193
*1221 FILLER_11_201
*1222 FILLER_11_211
*1223 FILLER_11_222
*1224 FILLER_11_225
*1225 FILLER_11_233
*1226 FILLER_11_250
*1227 FILLER_11_258
*1228 FILLER_11_278
*1229 FILLER_11_281
*1230 FILLER_11_293
*1231 FILLER_11_3
*1232 FILLER_11_305
*1233 FILLER_11_31
*1234 FILLER_11_317
*1235 FILLER_11_329
*1236 FILLER_11_335
*1237 FILLER_11_337
*1238 FILLER_11_346
*1239 FILLER_11_356
*1240 FILLER_11_368
*1241 FILLER_11_378
*1242 FILLER_11_389
*1243 FILLER_11_393
*1244 FILLER_11_400
*1245 FILLER_11_412
*1246 FILLER_11_419
*1247 FILLER_11_428
*1248 FILLER_11_435
*1249 FILLER_11_447
*1250 FILLER_11_449
*1251 FILLER_11_461
*1252 FILLER_11_473
*1253 FILLER_11_485
*1254 FILLER_11_49
*1255 FILLER_11_497
*1256 FILLER_11_503
*1257 FILLER_11_505
*1258 FILLER_11_517
*1259 FILLER_11_529
*1260 FILLER_11_541
*1261 FILLER_11_55
*1262 FILLER_11_553
*1263 FILLER_11_559
*1264 FILLER_11_561
*1265 FILLER_11_57
*1266 FILLER_11_573
*1267 FILLER_11_585
*1268 FILLER_11_597
*1269 FILLER_11_609
*1270 FILLER_11_615
*1271 FILLER_11_617
*1272 FILLER_11_65
*1273 FILLER_11_76
*1274 FILLER_11_88
*1275 FILLER_11_96
*1276 FILLER_12_104
*1277 FILLER_12_129
*1278 FILLER_12_137
*1279 FILLER_12_141
*1280 FILLER_12_153
*1281 FILLER_12_165
*1282 FILLER_12_17
*1283 FILLER_12_174
*1284 FILLER_12_184
*1285 FILLER_12_197
*1286 FILLER_12_205
*1287 FILLER_12_217
*1288 FILLER_12_226
*1289 FILLER_12_238
*1290 FILLER_12_25
*1291 FILLER_12_250
*1292 FILLER_12_253
*1293 FILLER_12_265
*1294 FILLER_12_277
*1295 FILLER_12_289
*1296 FILLER_12_29
*1297 FILLER_12_295
*1298 FILLER_12_3
*1299 FILLER_12_302
*1300 FILLER_12_309
*1301 FILLER_12_327
*1302 FILLER_12_336
*1303 FILLER_12_348
*1304 FILLER_12_360
*1305 FILLER_12_365
*1306 FILLER_12_373
*1307 FILLER_12_380
*1308 FILLER_12_395
*1309 FILLER_12_407
*1310 FILLER_12_41
*1311 FILLER_12_419
*1312 FILLER_12_421
*1313 FILLER_12_429
*1314 FILLER_12_441
*1315 FILLER_12_453
*1316 FILLER_12_465
*1317 FILLER_12_473
*1318 FILLER_12_477
*1319 FILLER_12_489
*1320 FILLER_12_501
*1321 FILLER_12_513
*1322 FILLER_12_525
*1323 FILLER_12_53
*1324 FILLER_12_531
*1325 FILLER_12_533
*1326 FILLER_12_545
*1327 FILLER_12_557
*1328 FILLER_12_569
*1329 FILLER_12_581
*1330 FILLER_12_587
*1331 FILLER_12_589
*1332 FILLER_12_601
*1333 FILLER_12_613
*1334 FILLER_12_65
*1335 FILLER_12_72
*1336 FILLER_12_80
*1337 FILLER_12_85
*1338 FILLER_12_9
*1339 FILLER_12_93
*1340 FILLER_13_108
*1341 FILLER_13_113
*1342 FILLER_13_117
*1343 FILLER_13_127
*1344 FILLER_13_139
*1345 FILLER_13_151
*1346 FILLER_13_157
*1347 FILLER_13_165
*1348 FILLER_13_169
*1349 FILLER_13_187
*1350 FILLER_13_199
*1351 FILLER_13_211
*1352 FILLER_13_222
*1353 FILLER_13_225
*1354 FILLER_13_234
*1355 FILLER_13_246
*1356 FILLER_13_258
*1357 FILLER_13_266
*1358 FILLER_13_27
*1359 FILLER_13_278
*1360 FILLER_13_281
*1361 FILLER_13_285
*1362 FILLER_13_294
*1363 FILLER_13_3
*1364 FILLER_13_307
*1365 FILLER_13_326
*1366 FILLER_13_333
*1367 FILLER_13_337
*1368 FILLER_13_342
*1369 FILLER_13_35
*1370 FILLER_13_350
*1371 FILLER_13_360
*1372 FILLER_13_372
*1373 FILLER_13_378
*1374 FILLER_13_390
*1375 FILLER_13_393
*1376 FILLER_13_405
*1377 FILLER_13_409
*1378 FILLER_13_417
*1379 FILLER_13_424
*1380 FILLER_13_446
*1381 FILLER_13_449
*1382 FILLER_13_461
*1383 FILLER_13_473
*1384 FILLER_13_485
*1385 FILLER_13_497
*1386 FILLER_13_503
*1387 FILLER_13_505
*1388 FILLER_13_517
*1389 FILLER_13_529
*1390 FILLER_13_54
*1391 FILLER_13_541
*1392 FILLER_13_553
*1393 FILLER_13_559
*1394 FILLER_13_561
*1395 FILLER_13_57
*1396 FILLER_13_573
*1397 FILLER_13_585
*1398 FILLER_13_597
*1399 FILLER_13_609
*1400 FILLER_13_615
*1401 FILLER_13_617
*1402 FILLER_13_68
*1403 FILLER_13_81
*1404 FILLER_13_89
*1405 FILLER_13_95
*1406 FILLER_14_11
*1407 FILLER_14_110
*1408 FILLER_14_138
*1409 FILLER_14_141
*1410 FILLER_14_149
*1411 FILLER_14_161
*1412 FILLER_14_167
*1413 FILLER_14_175
*1414 FILLER_14_187
*1415 FILLER_14_194
*1416 FILLER_14_197
*1417 FILLER_14_205
*1418 FILLER_14_213
*1419 FILLER_14_232
*1420 FILLER_14_24
*1421 FILLER_14_244
*1422 FILLER_14_253
*1423 FILLER_14_264
*1424 FILLER_14_276
*1425 FILLER_14_282
*1426 FILLER_14_286
*1427 FILLER_14_29
*1428 FILLER_14_290
*1429 FILLER_14_293
*1430 FILLER_14_3
*1431 FILLER_14_300
*1432 FILLER_14_309
*1433 FILLER_14_326
*1434 FILLER_14_334
*1435 FILLER_14_352
*1436 FILLER_14_365
*1437 FILLER_14_371
*1438 FILLER_14_388
*1439 FILLER_14_408
*1440 FILLER_14_41
*1441 FILLER_14_416
*1442 FILLER_14_421
*1443 FILLER_14_433
*1444 FILLER_14_445
*1445 FILLER_14_466
*1446 FILLER_14_474
*1447 FILLER_14_477
*1448 FILLER_14_489
*1449 FILLER_14_49
*1450 FILLER_14_501
*1451 FILLER_14_513
*1452 FILLER_14_525
*1453 FILLER_14_531
*1454 FILLER_14_533
*1455 FILLER_14_545
*1456 FILLER_14_557
*1457 FILLER_14_569
*1458 FILLER_14_581
*1459 FILLER_14_587
*1460 FILLER_14_589
*1461 FILLER_14_601
*1462 FILLER_14_61
*1463 FILLER_14_613
*1464 FILLER_14_74
*1465 FILLER_14_82
*1466 FILLER_14_85
*1467 FILLER_14_97
*1468 FILLER_15_101
*1469 FILLER_15_109
*1470 FILLER_15_113
*1471 FILLER_15_127
*1472 FILLER_15_139
*1473 FILLER_15_156
*1474 FILLER_15_169
*1475 FILLER_15_177
*1476 FILLER_15_18
*1477 FILLER_15_202
*1478 FILLER_15_214
*1479 FILLER_15_222
*1480 FILLER_15_225
*1481 FILLER_15_237
*1482 FILLER_15_245
*1483 FILLER_15_26
*1484 FILLER_15_263
*1485 FILLER_15_274
*1486 FILLER_15_281
*1487 FILLER_15_293
*1488 FILLER_15_3
*1489 FILLER_15_305
*1490 FILLER_15_320
*1491 FILLER_15_332
*1492 FILLER_15_337
*1493 FILLER_15_345
*1494 FILLER_15_360
*1495 FILLER_15_372
*1496 FILLER_15_38
*1497 FILLER_15_384
*1498 FILLER_15_393
*1499 FILLER_15_397
*1500 FILLER_15_407
*1501 FILLER_15_419
*1502 FILLER_15_427
*1503 FILLER_15_446
*1504 FILLER_15_449
*1505 FILLER_15_46
*1506 FILLER_15_463
*1507 FILLER_15_473
*1508 FILLER_15_485
*1509 FILLER_15_497
*1510 FILLER_15_503
*1511 FILLER_15_505
*1512 FILLER_15_517
*1513 FILLER_15_52
*1514 FILLER_15_529
*1515 FILLER_15_541
*1516 FILLER_15_553
*1517 FILLER_15_559
*1518 FILLER_15_561
*1519 FILLER_15_57
*1520 FILLER_15_573
*1521 FILLER_15_585
*1522 FILLER_15_597
*1523 FILLER_15_609
*1524 FILLER_15_615
*1525 FILLER_15_617
*1526 FILLER_15_71
*1527 FILLER_15_86
*1528 FILLER_16_105
*1529 FILLER_16_113
*1530 FILLER_16_130
*1531 FILLER_16_138
*1532 FILLER_16_141
*1533 FILLER_16_156
*1534 FILLER_16_167
*1535 FILLER_16_179
*1536 FILLER_16_187
*1537 FILLER_16_191
*1538 FILLER_16_195
*1539 FILLER_16_197
*1540 FILLER_16_209
*1541 FILLER_16_217
*1542 FILLER_16_22
*1543 FILLER_16_224
*1544 FILLER_16_234
*1545 FILLER_16_246
*1546 FILLER_16_253
*1547 FILLER_16_263
*1548 FILLER_16_275
*1549 FILLER_16_287
*1550 FILLER_16_29
*1551 FILLER_16_299
*1552 FILLER_16_3
*1553 FILLER_16_307
*1554 FILLER_16_309
*1555 FILLER_16_319
*1556 FILLER_16_331
*1557 FILLER_16_339
*1558 FILLER_16_346
*1559 FILLER_16_358
*1560 FILLER_16_365
*1561 FILLER_16_377
*1562 FILLER_16_389
*1563 FILLER_16_403
*1564 FILLER_16_409
*1565 FILLER_16_417
*1566 FILLER_16_421
*1567 FILLER_16_433
*1568 FILLER_16_453
*1569 FILLER_16_46
*1570 FILLER_16_461
*1571 FILLER_16_472
*1572 FILLER_16_477
*1573 FILLER_16_489
*1574 FILLER_16_501
*1575 FILLER_16_513
*1576 FILLER_16_525
*1577 FILLER_16_531
*1578 FILLER_16_533
*1579 FILLER_16_545
*1580 FILLER_16_557
*1581 FILLER_16_569
*1582 FILLER_16_58
*1583 FILLER_16_581
*1584 FILLER_16_587
*1585 FILLER_16_589
*1586 FILLER_16_601
*1587 FILLER_16_613
*1588 FILLER_16_62
*1589 FILLER_16_66
*1590 FILLER_16_72
*1591 FILLER_16_82
*1592 FILLER_16_85
*1593 FILLER_16_91
*1594 FILLER_17_100
*1595 FILLER_17_11
*1596 FILLER_17_113
*1597 FILLER_17_125
*1598 FILLER_17_137
*1599 FILLER_17_149
*1600 FILLER_17_163
*1601 FILLER_17_167
*1602 FILLER_17_169
*1603 FILLER_17_176
*1604 FILLER_17_183
*1605 FILLER_17_19
*1606 FILLER_17_195
*1607 FILLER_17_203
*1608 FILLER_17_214
*1609 FILLER_17_222
*1610 FILLER_17_225
*1611 FILLER_17_230
*1612 FILLER_17_242
*1613 FILLER_17_254
*1614 FILLER_17_262
*1615 FILLER_17_272
*1616 FILLER_17_281
*1617 FILLER_17_299
*1618 FILLER_17_3
*1619 FILLER_17_315
*1620 FILLER_17_327
*1621 FILLER_17_335
*1622 FILLER_17_337
*1623 FILLER_17_34
*1624 FILLER_17_349
*1625 FILLER_17_361
*1626 FILLER_17_373
*1627 FILLER_17_385
*1628 FILLER_17_391
*1629 FILLER_17_393
*1630 FILLER_17_40
*1631 FILLER_17_403
*1632 FILLER_17_411
*1633 FILLER_17_417
*1634 FILLER_17_425
*1635 FILLER_17_437
*1636 FILLER_17_445
*1637 FILLER_17_449
*1638 FILLER_17_46
*1639 FILLER_17_461
*1640 FILLER_17_473
*1641 FILLER_17_485
*1642 FILLER_17_497
*1643 FILLER_17_503
*1644 FILLER_17_505
*1645 FILLER_17_517
*1646 FILLER_17_529
*1647 FILLER_17_54
*1648 FILLER_17_541
*1649 FILLER_17_553
*1650 FILLER_17_559
*1651 FILLER_17_561
*1652 FILLER_17_57
*1653 FILLER_17_573
*1654 FILLER_17_585
*1655 FILLER_17_597
*1656 FILLER_17_609
*1657 FILLER_17_615
*1658 FILLER_17_617
*1659 FILLER_17_65
*1660 FILLER_17_69
*1661 FILLER_17_75
*1662 FILLER_17_79
*1663 FILLER_17_91
*1664 FILLER_18_106
*1665 FILLER_18_11
*1666 FILLER_18_114
*1667 FILLER_18_123
*1668 FILLER_18_135
*1669 FILLER_18_139
*1670 FILLER_18_141
*1671 FILLER_18_161
*1672 FILLER_18_173
*1673 FILLER_18_180
*1674 FILLER_18_19
*1675 FILLER_18_192
*1676 FILLER_18_197
*1677 FILLER_18_205
*1678 FILLER_18_212
*1679 FILLER_18_216
*1680 FILLER_18_233
*1681 FILLER_18_245
*1682 FILLER_18_251
*1683 FILLER_18_253
*1684 FILLER_18_261
*1685 FILLER_18_267
*1686 FILLER_18_27
*1687 FILLER_18_272
*1688 FILLER_18_283
*1689 FILLER_18_29
*1690 FILLER_18_292
*1691 FILLER_18_3
*1692 FILLER_18_304
*1693 FILLER_18_309
*1694 FILLER_18_321
*1695 FILLER_18_349
*1696 FILLER_18_361
*1697 FILLER_18_365
*1698 FILLER_18_378
*1699 FILLER_18_384
*1700 FILLER_18_394
*1701 FILLER_18_406
*1702 FILLER_18_415
*1703 FILLER_18_419
*1704 FILLER_18_421
*1705 FILLER_18_428
*1706 FILLER_18_436
*1707 FILLER_18_453
*1708 FILLER_18_465
*1709 FILLER_18_47
*1710 FILLER_18_473
*1711 FILLER_18_477
*1712 FILLER_18_489
*1713 FILLER_18_501