*SPEF "ieee 1481-1999"
*DESIGN "Flash"
*DATE "11:11:11 Fri 11 11, 1111"
*VENDOR "OpenRCX"
*PROGRAM "Parallel Extraction"
*VERSION "1.0"
*DESIGN_FLOW "NAME_SCOPE LOCAL" "PIN_CAP NONE"
*DIVIDER /
*DELIMITER :
*BUS_DELIMITER []
*T_UNIT 1 NS
*C_UNIT 1 PF
*R_UNIT 1 OHM
*L_UNIT 1 HENRY

*NAME_MAP
*1 flash_csb
*2 flash_io0_read
*3 net183
*4 flash_io0_write
*5 flash_io1_read
*6 net179
*7 net180
*8 flash_sck
*9 sram_addr0[0]
*10 sram_addr0[1]
*11 sram_addr0[2]
*12 sram_addr0[3]
*13 sram_addr0[4]
*14 sram_addr0[5]
*15 sram_addr0[6]
*16 sram_addr0[7]
*17 sram_addr0[8]
*18 sram_addr1[0]
*19 sram_addr1[1]
*20 sram_addr1[2]
*21 sram_addr1[3]
*22 sram_addr1[4]
*23 sram_addr1[5]
*24 sram_addr1[6]
*25 sram_addr1[7]
*26 sram_addr1[8]
*27 sram_clk0
*28 sram_clk1
*29 sram_csb0
*30 sram_csb1
*31 sram_din0[0]
*32 sram_din0[10]
*33 sram_din0[11]
*34 sram_din0[12]
*35 sram_din0[13]
*36 sram_din0[14]
*37 sram_din0[15]
*38 sram_din0[16]
*39 sram_din0[17]
*40 sram_din0[18]
*41 sram_din0[19]
*42 sram_din0[1]
*43 sram_din0[20]
*44 sram_din0[21]
*45 sram_din0[22]
*46 sram_din0[23]
*47 sram_din0[24]
*48 sram_din0[25]
*49 sram_din0[26]
*50 sram_din0[27]
*51 sram_din0[28]
*52 sram_din0[29]
*53 sram_din0[2]
*54 sram_din0[30]
*55 sram_din0[31]
*56 sram_din0[3]
*57 sram_din0[4]
*58 sram_din0[5]
*59 sram_din0[6]
*60 sram_din0[7]
*61 sram_din0[8]
*62 sram_din0[9]
*63 sram_dout0[0]
*64 sram_dout0[10]
*65 sram_dout0[11]
*66 sram_dout0[12]
*67 sram_dout0[13]
*68 sram_dout0[14]
*69 sram_dout0[15]
*70 sram_dout0[16]
*71 sram_dout0[17]
*72 sram_dout0[18]
*73 sram_dout0[19]
*74 sram_dout0[1]
*75 sram_dout0[20]
*76 sram_dout0[21]
*77 sram_dout0[22]
*78 sram_dout0[23]
*79 sram_dout0[24]
*80 sram_dout0[25]
*81 sram_dout0[26]
*82 sram_dout0[27]
*83 sram_dout0[28]
*84 sram_dout0[29]
*85 sram_dout0[2]
*86 sram_dout0[30]
*87 sram_dout0[31]
*88 sram_dout0[3]
*89 sram_dout0[4]
*90 sram_dout0[5]
*91 sram_dout0[6]
*92 sram_dout0[7]
*93 sram_dout0[8]
*94 sram_dout0[9]
*95 sram_dout1[0]
*96 sram_dout1[10]
*97 sram_dout1[11]
*98 sram_dout1[12]
*99 sram_dout1[13]
*100 sram_dout1[14]
*101 sram_dout1[15]
*102 sram_dout1[16]
*103 sram_dout1[17]
*104 sram_dout1[18]
*105 sram_dout1[19]
*106 sram_dout1[1]
*107 sram_dout1[20]
*108 sram_dout1[21]
*109 sram_dout1[22]
*110 sram_dout1[23]
*111 sram_dout1[24]
*112 sram_dout1[25]
*113 sram_dout1[26]
*114 sram_dout1[27]
*115 sram_dout1[28]
*116 sram_dout1[29]
*117 sram_dout1[2]
*118 sram_dout1[30]
*119 sram_dout1[31]
*120 sram_dout1[3]
*121 sram_dout1[4]
*122 sram_dout1[5]
*123 sram_dout1[6]
*124 sram_dout1[7]
*125 sram_dout1[8]
*126 sram_dout1[9]
*127 net181
*128 net184
*129 net185
*130 net186
*131 net187
*134 wb_ack_o
*135 wb_adr_i[0]
*136 wb_adr_i[10]
*137 wb_adr_i[11]
*138 wb_adr_i[12]
*139 wb_adr_i[13]
*140 wb_adr_i[14]
*141 wb_adr_i[15]
*142 wb_adr_i[16]
*143 wb_adr_i[17]
*144 wb_adr_i[18]
*145 wb_adr_i[19]
*146 wb_adr_i[1]
*147 wb_adr_i[20]
*148 wb_adr_i[21]
*149 wb_adr_i[22]
*150 wb_adr_i[23]
*151 wb_adr_i[2]
*152 wb_adr_i[3]
*153 wb_adr_i[4]
*154 wb_adr_i[5]
*155 wb_adr_i[6]
*156 wb_adr_i[7]
*157 wb_adr_i[8]
*158 wb_adr_i[9]
*159 wb_clk_i
*160 wb_cyc_i
*161 wb_data_i[0]
*162 wb_data_i[10]
*163 wb_data_i[11]
*164 wb_data_i[12]
*165 wb_data_i[13]
*166 wb_data_i[14]
*167 wb_data_i[15]
*168 wb_data_i[16]
*169 wb_data_i[17]
*170 wb_data_i[18]
*171 wb_data_i[19]
*172 wb_data_i[1]
*173 wb_data_i[20]
*174 wb_data_i[21]
*175 wb_data_i[22]
*176 wb_data_i[23]
*177 wb_data_i[24]
*178 wb_data_i[25]
*179 wb_data_i[26]
*180 wb_data_i[27]
*181 wb_data_i[28]
*182 wb_data_i[29]
*183 wb_data_i[2]
*184 wb_data_i[30]
*185 wb_data_i[31]
*186 wb_data_i[3]
*187 wb_data_i[4]
*188 wb_data_i[5]
*189 wb_data_i[6]
*190 wb_data_i[7]
*191 wb_data_i[8]
*192 wb_data_i[9]
*193 wb_data_o[0]
*194 wb_data_o[10]
*195 wb_data_o[11]
*196 wb_data_o[12]
*197 wb_data_o[13]
*198 wb_data_o[14]
*199 wb_data_o[15]
*200 wb_data_o[16]
*201 wb_data_o[17]
*202 wb_data_o[18]
*203 wb_data_o[19]
*204 wb_data_o[1]
*205 wb_data_o[20]
*206 wb_data_o[21]
*207 wb_data_o[22]
*208 wb_data_o[23]
*209 wb_data_o[24]
*210 wb_data_o[25]
*211 wb_data_o[26]
*212 wb_data_o[27]
*213 wb_data_o[28]
*214 wb_data_o[29]
*215 wb_data_o[2]
*216 wb_data_o[30]
*217 wb_data_o[31]
*218 wb_data_o[3]
*219 wb_data_o[4]
*220 wb_data_o[5]
*221 wb_data_o[6]
*222 wb_data_o[7]
*223 wb_data_o[8]
*224 wb_data_o[9]
*225 net182
*226 wb_rst_i
*227 wb_sel_i[0]
*228 wb_sel_i[1]
*229 wb_sel_i[2]
*230 wb_sel_i[3]
*231 wb_stall_o
*232 wb_stb_i
*233 wb_we_i
*234 _0000_
*235 _0001_
*236 _0002_
*237 _0003_
*238 _0004_
*239 _0005_
*240 _0006_
*241 _0007_
*242 _0008_
*243 _0009_
*244 _0010_
*245 _0011_
*246 _0012_
*247 _0013_
*248 _0014_
*249 _0015_
*250 _0016_
*251 _0017_
*252 _0018_
*253 _0019_
*254 _0020_
*255 _0021_
*256 _0022_
*257 _0023_
*258 _0024_
*259 _0025_
*260 _0026_
*261 _0027_
*262 _0028_
*263 _0029_
*264 _0030_
*265 _0031_
*266 _0032_
*267 _0033_
*268 _0034_
*269 _0035_
*270 _0036_
*271 _0037_
*272 _0038_
*273 _0039_
*274 _0040_
*275 _0041_
*276 _0042_
*277 _0043_
*278 _0044_
*279 _0045_
*280 _0046_
*281 _0047_
*282 _0048_
*283 _0049_
*284 _0050_
*285 _0051_
*286 _0052_
*287 _0053_
*288 _0054_
*289 _0055_
*290 _0056_
*291 _0057_
*292 _0058_
*293 _0059_
*294 _0060_
*295 _0061_
*296 _0062_
*297 _0063_
*298 _0064_
*299 _0065_
*300 _0066_
*301 _0067_
*302 _0068_
*303 _0069_
*304 _0070_
*305 _0071_
*306 _0072_
*307 _0073_
*308 _0074_
*309 _0075_
*310 _0076_
*311 _0077_
*312 _0078_
*313 _0079_
*314 _0080_
*315 _0081_
*316 _0082_
*317 _0083_
*318 _0084_
*319 _0085_
*320 _0086_
*321 _0087_
*322 _0088_
*323 _0089_
*324 _0090_
*325 _0091_
*326 _0092_
*327 _0093_
*328 _0094_
*329 _0095_
*330 _0096_
*331 _0097_
*332 _0098_
*333 _0099_
*334 _0100_
*335 _0101_
*336 _0102_
*337 _0103_
*338 _0104_
*339 _0105_
*340 _0106_
*341 _0107_
*342 _0108_
*343 _0109_
*344 _0110_
*345 _0111_
*346 _0112_
*347 _0113_
*348 _0114_
*349 _0115_
*350 _0116_
*351 _0117_
*352 _0118_
*353 _0119_
*354 _0120_
*355 _0121_
*356 _0122_
*357 _0123_
*358 _0124_
*359 _0125_
*360 _0126_
*361 _0127_
*362 _0128_
*363 _0129_
*364 _0130_
*365 _0131_
*366 _0132_
*367 _0133_
*368 _0134_
*369 _0135_
*370 _0136_
*371 _0137_
*372 _0138_
*373 _0139_
*374 _0140_
*375 _0141_
*376 _0142_
*377 _0143_
*378 _0144_
*379 _0145_
*380 _0146_
*381 _0147_
*382 _0148_
*383 _0149_
*384 _0150_
*385 _0151_
*386 _0152_
*387 _0153_
*388 _0154_
*389 _0155_
*390 _0156_
*391 _0157_
*392 _0158_
*393 _0159_
*394 _0160_
*395 _0161_
*396 _0162_
*397 _0163_
*398 _0164_
*399 _0165_
*400 _0166_
*401 _0167_
*402 _0168_
*403 _0169_
*404 _0170_
*405 _0171_
*406 _0172_
*407 _0173_
*408 _0174_
*409 _0175_
*410 _0176_
*411 _0177_
*412 _0178_
*413 _0179_
*414 _0180_
*415 _0181_
*416 _0182_
*417 _0183_
*418 _0184_
*419 _0185_
*420 _0186_
*421 _0187_
*422 _0188_
*423 _0189_
*424 _0190_
*425 _0191_
*426 _0192_
*427 _0193_
*428 _0194_
*429 _0195_
*430 _0196_
*431 _0197_
*432 _0198_
*433 _0199_
*434 _0200_
*435 _0201_
*436 _0202_
*437 _0203_
*438 _0204_
*439 _0205_
*440 _0206_
*441 _0207_
*442 _0208_
*443 _0209_
*444 _0210_
*445 _0211_
*446 _0212_
*447 _0213_
*448 _0214_
*449 _0215_
*450 _0216_
*451 _0217_
*452 _0218_
*453 _0219_
*454 _0220_
*455 _0221_
*456 _0222_
*457 _0223_
*458 _0224_
*459 _0225_
*460 _0226_
*461 _0227_
*462 _0228_
*463 _0229_
*464 _0230_
*465 _0231_
*466 _0232_
*467 _0233_
*468 _0234_
*469 _0235_
*470 _0236_
*471 _0237_
*472 _0238_
*473 _0239_
*474 _0240_
*475 _0241_
*476 _0242_
*477 _0243_
*478 _0244_
*479 _0245_
*480 _0246_
*481 _0247_
*482 _0248_
*483 _0249_
*484 _0250_
*485 _0251_
*486 _0252_
*487 _0253_
*488 _0254_
*489 _0255_
*490 _0256_
*491 _0257_
*492 _0258_
*493 _0259_
*494 _0260_
*495 _0261_
*496 _0262_
*497 _0263_
*498 _0264_
*499 _0265_
*500 _0266_
*501 _0267_
*502 _0268_
*503 _0269_
*504 _0270_
*505 _0271_
*506 _0272_
*507 _0273_
*508 _0274_
*509 _0275_
*510 _0276_
*511 _0277_
*512 _0278_
*513 _0279_
*514 _0280_
*515 _0281_
*516 _0282_
*517 _0283_
*518 _0284_
*519 _0285_
*520 _0286_
*521 _0287_
*522 _0288_
*523 _0289_
*524 _0290_
*525 _0291_
*526 _0292_
*527 _0293_
*528 _0294_
*529 _0295_
*530 _0296_
*531 _0297_
*532 _0298_
*533 _0299_
*534 _0300_
*535 _0301_
*536 _0302_
*537 _0303_
*538 _0304_
*539 _0305_
*540 _0306_
*541 _0307_
*542 _0308_
*543 _0309_
*544 _0310_
*545 _0311_
*546 _0312_
*547 _0313_
*548 _0314_
*549 _0315_
*550 _0316_
*551 _0317_
*552 _0318_
*553 _0319_
*554 _0320_
*555 _0321_
*556 _0322_
*557 _0323_
*558 _0324_
*559 _0325_
*560 _0326_
*561 _0327_
*562 _0328_
*563 _0329_
*564 _0330_
*565 _0331_
*566 _0332_
*567 _0333_
*568 _0334_
*569 _0335_
*570 _0336_
*571 _0337_
*572 _0338_
*573 _0339_
*574 _0340_
*575 _0341_
*576 _0342_
*577 _0343_
*578 _0344_
*579 _0345_
*580 _0346_
*581 _0347_
*582 _0348_
*583 _0349_
*584 _0350_
*585 _0351_
*586 _0352_
*587 _0353_
*588 _0354_
*589 _0355_
*590 _0356_
*591 _0357_
*592 _0358_
*593 _0359_
*594 _0360_
*595 _0361_
*596 _0362_
*597 _0363_
*598 _0364_
*599 _0365_
*600 _0366_
*601 _0367_
*602 _0368_
*603 _0369_
*604 _0370_
*605 _0371_
*606 _0372_
*607 _0373_
*608 _0374_
*609 _0375_
*610 _0376_
*611 _0377_
*612 _0378_
*613 _0379_
*614 _0380_
*615 _0381_
*616 _0382_
*617 _0383_
*618 _0384_
*619 _0385_
*620 _0386_
*621 _0387_
*622 _0388_
*623 _0389_
*624 _0390_
*625 _0391_
*626 _0392_
*627 _0393_
*628 _0394_
*629 _0395_
*630 _0396_
*631 _0397_
*632 _0398_
*633 _0399_
*634 _0400_
*635 _0401_
*636 _0402_
*637 _0403_
*638 _0404_
*639 _0405_
*640 _0406_
*641 _0407_
*642 _0408_
*643 _0409_
*644 _0410_
*645 _0411_
*646 _0412_
*647 _0413_
*648 _0414_
*649 _0415_
*650 _0416_
*651 _0417_
*652 _0418_
*653 _0419_
*654 _0420_
*655 _0421_
*656 _0422_
*657 _0423_
*658 _0424_
*659 _0425_
*660 _0426_
*661 _0427_
*662 _0428_
*663 _0429_
*664 _0430_
*665 _0431_
*666 _0432_
*667 _0433_
*668 _0434_
*669 _0435_
*670 _0436_
*671 _0437_
*672 _0438_
*673 _0439_
*674 _0440_
*675 _0441_
*676 _0442_
*677 _0443_
*678 _0444_
*679 _0445_
*680 _0446_
*681 _0447_
*682 _0448_
*683 _0449_
*684 _0450_
*685 _0451_
*686 _0452_
*687 _0453_
*688 _0454_
*689 _0455_
*690 _0456_
*691 _0457_
*692 _0458_
*693 _0459_
*694 _0460_
*695 _0461_
*696 _0462_
*697 _0463_
*698 _0464_
*699 _0465_
*700 _0466_
*701 _0467_
*702 _0468_
*703 _0469_
*704 _0470_
*705 _0471_
*706 _0472_
*707 _0473_
*708 _0474_
*709 _0475_
*710 _0476_
*711 _0477_
*712 _0478_
*713 _0479_
*714 _0480_
*715 _0481_
*716 _0482_
*717 _0483_
*718 _0484_
*719 _0485_
*720 _0486_
*721 _0487_
*722 _0488_
*723 _0489_
*724 _0490_
*725 _0491_
*726 _0492_
*727 _0493_
*728 _0494_
*729 _0495_
*730 _0496_
*731 _0497_
*732 _0498_
*733 _0499_
*734 _0500_
*735 _0501_
*736 _0502_
*737 _0503_
*738 _0504_
*739 _0505_
*740 _0506_
*741 _0507_
*742 _0508_
*743 _0509_
*744 _0510_
*745 _0511_
*746 _0512_
*747 _0513_
*748 _0514_
*749 _0515_
*750 _0516_
*751 _0517_
*752 _0518_
*753 _0519_
*754 _0520_
*755 _0521_
*756 _0522_
*757 _0523_
*758 _0524_
*759 _0525_
*760 _0526_
*761 _0527_
*762 _0528_
*763 _0529_
*764 _0530_
*765 _0531_
*766 _0532_
*767 _0533_
*768 _0534_
*769 _0535_
*770 _0536_
*771 _0537_
*772 _0538_
*773 _0539_
*774 _0540_
*775 _0541_
*776 _0542_
*777 _0543_
*778 _0544_
*779 _0545_
*780 _0546_
*781 _0547_
*782 _0548_
*783 _0549_
*784 _0550_
*785 _0551_
*786 _0552_
*787 _0553_
*788 _0554_
*789 _0555_
*790 _0556_
*791 _0557_
*792 _0558_
*793 _0559_
*794 _0560_
*795 _0561_
*796 _0562_
*797 _0563_
*798 _0564_
*799 _0565_
*800 _0566_
*801 _0567_
*802 _0568_
*803 _0569_
*804 _0570_
*805 _0571_
*806 _0572_
*807 _0573_
*808 _0574_
*809 _0575_
*810 _0576_
*811 _0577_
*812 _0578_
*813 _0579_
*814 _0580_
*815 _0581_
*816 _0582_
*817 _0583_
*818 _0584_
*819 _0585_
*820 _0586_
*821 _0587_
*822 _0588_
*823 _0589_
*824 _0590_
*825 _0591_
*826 _0592_
*827 _0593_
*828 _0594_
*829 _0595_
*830 _0596_
*831 _0597_
*832 _0598_
*833 _0599_
*834 _0600_
*835 _0601_
*836 _0602_
*837 _0603_
*838 _0604_
*839 _0605_
*840 _0606_
*841 _0607_
*842 _0608_
*843 _0609_
*844 _0610_
*845 _0611_
*846 _0612_
*847 _0613_
*848 _0614_
*849 _0615_
*850 _0616_
*851 _0617_
*852 _0618_
*853 _0619_
*854 _0620_
*855 _0621_
*856 _0622_
*857 _0623_
*858 _0624_
*859 _0625_
*860 _0626_
*861 _0627_
*862 _0628_
*863 _0629_
*864 _0630_
*865 _0631_
*866 _0632_
*867 _0633_
*868 _0634_
*869 _0635_
*870 _0636_
*871 _0637_
*872 _0638_
*873 _0639_
*874 _0640_
*875 _0641_
*876 _0642_
*877 _0643_
*878 _0644_
*879 _0645_
*880 _0646_
*881 _0647_
*882 _0648_
*883 _0649_
*884 _0650_
*885 _0651_
*886 _0652_
*887 _0653_
*888 _0654_
*889 _0655_
*890 _0656_
*891 _0657_
*892 _0658_
*893 _0659_
*894 _0660_
*895 _0661_
*896 _0662_
*897 _0663_
*898 _0664_
*899 _0665_
*900 _0666_
*901 _0667_
*902 _0668_
*903 _0669_
*904 _0670_
*905 _0671_
*906 _0672_
*907 _0673_
*908 _0674_
*909 _0675_
*910 _0676_
*911 flashBuffer\.baseAddress\[0\]
*912 flashBuffer\.baseAddress\[10\]
*913 flashBuffer\.baseAddress\[11\]
*914 flashBuffer\.baseAddress\[12\]
*915 flashBuffer\.baseAddress\[13\]
*916 flashBuffer\.baseAddress\[14\]
*917 flashBuffer\.baseAddress\[15\]
*918 flashBuffer\.baseAddress\[16\]
*919 flashBuffer\.baseAddress\[17\]
*920 flashBuffer\.baseAddress\[18\]
*921 flashBuffer\.baseAddress\[19\]
*922 flashBuffer\.baseAddress\[1\]
*923 flashBuffer\.baseAddress\[20\]
*924 flashBuffer\.baseAddress\[21\]
*925 flashBuffer\.baseAddress\[22\]
*926 flashBuffer\.baseAddress\[23\]
*927 flashBuffer\.baseAddress\[2\]
*928 flashBuffer\.baseAddress\[3\]
*929 flashBuffer\.baseAddress\[4\]
*930 flashBuffer\.baseAddress\[5\]
*931 flashBuffer\.baseAddress\[6\]
*932 flashBuffer\.baseAddress\[7\]
*933 flashBuffer\.baseAddress\[8\]
*934 flashBuffer\.baseAddress\[9\]
*935 flashBuffer\.cachedAddress\[0\]
*936 flashBuffer\.cachedAddress\[11\]
*937 flashBuffer\.cachedAddress\[12\]
*938 flashBuffer\.cachedAddress\[13\]
*939 flashBuffer\.cachedAddress\[14\]
*940 flashBuffer\.cachedAddress\[15\]
*941 flashBuffer\.cachedAddress\[16\]
*942 flashBuffer\.cachedAddress\[17\]
*943 flashBuffer\.cachedAddress\[18\]
*944 flashBuffer\.cachedAddress\[19\]
*945 flashBuffer\.cachedAddress\[1\]
*946 flashBuffer\.cachedAddress\[20\]
*947 flashBuffer\.cachedAddress\[21\]
*948 flashBuffer\.cachedAddress\[22\]
*949 flashBuffer\.cachedAddress\[23\]
*950 flashBuffer\.cachedCount\[0\]
*951 flashBuffer\.cachedCount\[1\]
*952 flashBuffer\.cachedCount\[2\]
*953 flashBuffer\.cachedCount\[3\]
*954 flashBuffer\.cachedCount\[4\]
*955 flashBuffer\.cachedCount\[5\]
*956 flashBuffer\.cachedCount\[6\]
*957 flashBuffer\.cachedCount\[7\]
*958 flashBuffer\.cachedCount\[8\]
*959 flashBuffer\.cachedCount\[9\]
*960 flashBuffer\.configuration
*961 flashBuffer\.flashCacheReadReady
*962 flashBuffer\.qspi_readDataValid
*963 flashBuffer\.qspi_requestData
*964 net1
*965 net10
*966 net100
*967 net101
*968 net102
*969 net103
*970 net104
*971 net105
*972 net106
*973 net107
*974 net108
*975 net109
*976 net11
*977 net110
*978 net111
*979 net112
*980 net113
*981 net114
*982 net115
*983 net116
*984 net117
*985 net118
*986 net119
*987 net12
*988 net120
*989 net121
*990 net122
*991 net123
*992 net124
*993 net125
*994 net126
*995 net127
*996 net128
*997 net129
*998 net13
*999 net130
*1000 net131
*1001 net132
*1002 net133
*1003 net134
*1004 net135
*1005 net136
*1006 net137
*1007 net138
*1008 net139
*1009 net14
*1010 net140
*1011 net141
*1012 net142
*1013 net143
*1014 net144
*1015 net145
*1016 net146
*1017 net147
*1018 net148
*1019 net149
*1020 net15
*1021 net150
*1022 net151
*1023 net152
*1024 net153
*1025 net154
*1026 net155
*1027 net156
*1028 net157
*1029 net158
*1030 net159
*1031 net16
*1032 net160
*1033 net161
*1034 net162
*1035 net163
*1036 net164
*1037 net165
*1038 net166
*1039 net167
*1040 net168
*1041 net169
*1042 net17
*1043 net170
*1044 net171
*1045 net172
*1046 net173
*1047 net174
*1048 net175
*1049 net176
*1050 net177
*1051 net178
*1052 net18
*1053 net19
*1054 net2
*1055 net20
*1056 net21
*1057 net22
*1058 net23
*1059 net24
*1060 net25
*1061 net26
*1062 net27
*1063 net28
*1064 net29
*1065 net3
*1066 net30
*1067 net31
*1068 net32
*1069 net33
*1070 net34
*1071 net35
*1072 net36
*1073 net37
*1074 net38
*1075 net39
*1076 net4
*1077 net40
*1078 net41
*1079 net42
*1080 net43
*1081 net44
*1082 net45
*1083 net46
*1084 net47
*1085 net48
*1086 net49
*1087 net5
*1088 net50
*1089 net51
*1090 net52
*1091 net53
*1092 net54
*1093 net55
*1094 net56
*1095 net57
*1096 net58
*1097 net59
*1098 net6
*1099 net60
*1100 net61
*1101 net62
*1102 net63
*1103 net64
*1104 net65
*1105 net66
*1106 net67
*1107 net68
*1108 net69
*1109 net7
*1110 net70
*1111 net71
*1112 net72
*1113 net73
*1114 net74
*1115 net75
*1116 net76
*1117 net77
*1118 net78
*1119 net79
*1120 net8
*1121 net80
*1122 net81
*1123 net82
*1124 net83
*1125 net84
*1126 net85
*1127 net86
*1128 net87
*1129 net88
*1130 net89
*1131 net9
*1132 net90
*1133 net91
*1134 net92
*1135 net93
*1136 net94
*1137 net95
*1138 net96
*1139 net97
*1140 net98
*1141 net99
*1142 qspiDevice\.bitCounter\[0\]
*1143 qspiDevice\.bitCounter\[1\]
*1144 qspiDevice\.bitCounter\[2\]
*1145 qspiDevice\.bitCounter\[3\]
*1146 qspiDevice\.bitCounter\[4\]
*1147 qspiDevice\.outputClock
*1148 qspiDevice\.register\.outputBit
*1149 qspiDevice\.resetState\[0\]
*1150 qspiDevice\.resetState\[1\]
*1151 qspiDevice\.state\[0\]
*1152 qspiDevice\.state\[1\]
*1153 wbPeripheralBusInterface\.currentAddress\[10\]
*1154 wbPeripheralBusInterface\.currentAddress\[11\]
*1155 wbPeripheralBusInterface\.currentAddress\[12\]
*1156 wbPeripheralBusInterface\.currentAddress\[13\]
*1157 wbPeripheralBusInterface\.currentAddress\[14\]
*1158 wbPeripheralBusInterface\.currentAddress\[15\]
*1159 wbPeripheralBusInterface\.currentAddress\[16\]
*1160 wbPeripheralBusInterface\.currentAddress\[17\]
*1161 wbPeripheralBusInterface\.currentAddress\[18\]
*1162 wbPeripheralBusInterface\.currentAddress\[19\]
*1163 wbPeripheralBusInterface\.currentAddress\[20\]
*1164 wbPeripheralBusInterface\.currentAddress\[21\]
*1165 wbPeripheralBusInterface\.currentAddress\[22\]
*1166 wbPeripheralBusInterface\.currentAddress\[23\]
*1167 wbPeripheralBusInterface\.currentAddress\[2\]
*1168 wbPeripheralBusInterface\.currentAddress\[3\]
*1169 wbPeripheralBusInterface\.currentAddress\[4\]
*1170 wbPeripheralBusInterface\.currentAddress\[5\]
*1171 wbPeripheralBusInterface\.currentAddress\[6\]
*1172 wbPeripheralBusInterface\.currentAddress\[7\]
*1173 wbPeripheralBusInterface\.currentAddress\[8\]
*1174 wbPeripheralBusInterface\.currentAddress\[9\]
*1175 wbPeripheralBusInterface\.currentByteSelect\[0\]
*1176 wbPeripheralBusInterface\.currentByteSelect\[1\]
*1177 wbPeripheralBusInterface\.currentByteSelect\[2\]
*1178 wbPeripheralBusInterface\.state\[0\]
*1179 wbPeripheralBusInterface\.state\[1\]
*1180 FILLER_0_105
*1181 FILLER_0_111
*1182 FILLER_0_117
*1183 FILLER_0_123
*1184 FILLER_0_127
*1185 FILLER_0_133
*1186 FILLER_0_139
*1187 FILLER_0_141
*1188 FILLER_0_155
*1189 FILLER_0_163
*1190 FILLER_0_167
*1191 FILLER_0_169
*1192 FILLER_0_175
*1193 FILLER_0_183
*1194 FILLER_0_187
*1195 FILLER_0_192
*1196 FILLER_0_214
*1197 FILLER_0_222
*1198 FILLER_0_229
*1199 FILLER_0_237
*1200 FILLER_0_24
*1201 FILLER_0_245
*1202 FILLER_0_251
*1203 FILLER_0_257
*1204 FILLER_0_265
*1205 FILLER_0_273
*1206 FILLER_0_279
*1207 FILLER_0_285
*1208 FILLER_0_297
*1209 FILLER_0_3
*1210 FILLER_0_304
*1211 FILLER_0_313
*1212 FILLER_0_320
*1213 FILLER_0_328
*1214 FILLER_0_33
*1215 FILLER_0_347
*1216 FILLER_0_355
*1217 FILLER_0_363
*1218 FILLER_0_37
*1219 FILLER_0_375
*1220 FILLER_0_387
*1221 FILLER_0_391
*1222 FILLER_0_393
*1223 FILLER_0_403
*1224 FILLER_0_411
*1225 FILLER_0_419
*1226 FILLER_0_421
*1227 FILLER_0_429
*1228 FILLER_0_437
*1229 FILLER_0_445
*1230 FILLER_0_449
*1231 FILLER_0_457
*1232 FILLER_0_461
*1233 FILLER_0_466
*1234 FILLER_0_474
*1235 FILLER_0_477
*1236 FILLER_0_48
*1237 FILLER_0_485
*1238 FILLER_0_493
*1239 FILLER_0_498
*1240 FILLER_0_505
*1241 FILLER_0_509
*1242 FILLER_0_514
*1243 FILLER_0_522
*1244 FILLER_0_530
*1245 FILLER_0_533
*1246 FILLER_0_543
*1247 FILLER_0_553
*1248 FILLER_0_559
*1249 FILLER_0_567
*1250 FILLER_0_573
*1251 FILLER_0_580
*1252 FILLER_0_595
*1253 FILLER_0_603
*1254 FILLER_0_61
*1255 FILLER_0_611
*1256 FILLER_0_615
*1257 FILLER_0_621
*1258 FILLER_0_69
*1259 FILLER_0_76
*1260 FILLER_0_89
*1261 FILLER_0_95
*1262 FILLER_0_99
*1263 FILLER_10_104
*1264 FILLER_10_112
*1265 FILLER_10_13
*1266 FILLER_10_131
*1267 FILLER_10_139
*1268 FILLER_10_146
*1269 FILLER_10_161
*1270 FILLER_10_173
*1271 FILLER_10_185
*1272 FILLER_10_193
*1273 FILLER_10_203
*1274 FILLER_10_21
*1275 FILLER_10_215
*1276 FILLER_10_227
*1277 FILLER_10_239
*1278 FILLER_10_251
*1279 FILLER_10_253
*1280 FILLER_10_259
*1281 FILLER_10_268
*1282 FILLER_10_27
*1283 FILLER_10_276
*1284 FILLER_10_284
*1285 FILLER_10_29
*1286 FILLER_10_290
*1287 FILLER_10_304
*1288 FILLER_10_314
*1289 FILLER_10_322
*1290 FILLER_10_34
*1291 FILLER_10_341
*1292 FILLER_10_349
*1293 FILLER_10_361
*1294 FILLER_10_370
*1295 FILLER_10_382
*1296 FILLER_10_394
*1297 FILLER_10_398
*1298 FILLER_10_402
*1299 FILLER_10_410
*1300 FILLER_10_418
*1301 FILLER_10_421
*1302 FILLER_10_433
*1303 FILLER_10_452
*1304 FILLER_10_464
*1305 FILLER_10_487
*1306 FILLER_10_495
*1307 FILLER_10_507
*1308 FILLER_10_519
*1309 FILLER_10_531
*1310 FILLER_10_533
*1311 FILLER_10_54
*1312 FILLER_10_545
*1313 FILLER_10_557
*1314 FILLER_10_565
*1315 FILLER_10_577
*1316 FILLER_10_585
*1317 FILLER_10_589
*1318 FILLER_10_601
*1319 FILLER_10_613
*1320 FILLER_10_66
*1321 FILLER_10_74
*1322 FILLER_10_79
*1323 FILLER_10_83
*1324 FILLER_10_85
*1325 FILLER_10_93
*1326 FILLER_11_105
*1327 FILLER_11_111
*1328 FILLER_11_113
*1329 FILLER_11_125
*1330 FILLER_11_137
*1331 FILLER_11_149
*1332 FILLER_11_153
*1333 FILLER_11_164
*1334 FILLER_11_179
*1335 FILLER_11_187
*1336 FILLER_11_205
*1337 FILLER_11_217
*1338 FILLER_11_223
*1339 FILLER_11_233
*1340 FILLER_11_245
*1341 FILLER_11_25
*1342 FILLER_11_253
*1343 FILLER_11_264
*1344 FILLER_11_276
*1345 FILLER_11_281
*1346 FILLER_11_287
*1347 FILLER_11_294
*1348 FILLER_11_298
*1349 FILLER_11_3
*1350 FILLER_11_305
*1351 FILLER_11_313
*1352 FILLER_11_326
*1353 FILLER_11_334
*1354 FILLER_11_341
*1355 FILLER_11_349
*1356 FILLER_11_355
*1357 FILLER_11_367
*1358 FILLER_11_37
*1359 FILLER_11_374
*1360 FILLER_11_384
*1361 FILLER_11_393
*1362 FILLER_11_401
*1363 FILLER_11_407
*1364 FILLER_11_413
*1365 FILLER_11_421
*1366 FILLER_11_43
*1367 FILLER_11_433
*1368 FILLER_11_437
*1369 FILLER_11_444
*1370 FILLER_11_457
*1371 FILLER_11_469
*1372 FILLER_11_473
*1373 FILLER_11_482
*1374 FILLER_11_494
*1375 FILLER_11_50
*1376 FILLER_11_502
*1377 FILLER_11_505
*1378 FILLER_11_513
*1379 FILLER_11_522
*1380 FILLER_11_539
*1381 FILLER_11_551
*1382 FILLER_11_559
*1383 FILLER_11_561
*1384 FILLER_11_57
*1385 FILLER_11_573
*1386 FILLER_11_585
*1387 FILLER_11_597
*1388 FILLER_11_609
*1389 FILLER_11_615
*1390 FILLER_11_617
*1391 FILLER_11_69
*1392 FILLER_11_81
*1393 FILLER_11_93
*1394 FILLER_12_101
*1395 FILLER_12_113
*1396 FILLER_12_125
*1397 FILLER_12_136
*1398 FILLER_12_147
*1399 FILLER_12_15
*1400 FILLER_12_158
*1401 FILLER_12_169
*1402 FILLER_12_181
*1403 FILLER_12_193
*1404 FILLER_12_203
*1405 FILLER_12_215
*1406 FILLER_12_22
*1407 FILLER_12_223
*1408 FILLER_12_229
*1409 FILLER_12_235
*1410 FILLER_12_246
*1411 FILLER_12_253
*1412 FILLER_12_265
*1413 FILLER_12_277
*1414 FILLER_12_289
*1415 FILLER_12_29
*1416 FILLER_12_293
*1417 FILLER_12_300
*1418 FILLER_12_309
*1419 FILLER_12_321
*1420 FILLER_12_333
*1421 FILLER_12_345
*1422 FILLER_12_349
*1423 FILLER_12_358
*1424 FILLER_12_365
*1425 FILLER_12_377
*1426 FILLER_12_383
*1427 FILLER_12_391
*1428 FILLER_12_405
*1429 FILLER_12_413
*1430 FILLER_12_419
*1431 FILLER_12_421
*1432 FILLER_12_433
*1433 FILLER_12_441
*1434 FILLER_12_449
*1435 FILLER_12_461
*1436 FILLER_12_473
*1437 FILLER_12_485
*1438 FILLER_12_494
*1439 FILLER_12_506
*1440 FILLER_12_528
*1441 FILLER_12_53
*1442 FILLER_12_533
*1443 FILLER_12_537
*1444 FILLER_12_544
*1445 FILLER_12_564
*1446 FILLER_12_576
*1447 FILLER_12_589
*1448 FILLER_12_6
*1449 FILLER_12_601
*1450 FILLER_12_613
*1451 FILLER_12_65
*1452 FILLER_12_80
*1453 FILLER_12_90
*1454 FILLER_12_94
*1455 FILLER_13_100
*1456 FILLER_13_113
*1457 FILLER_13_121
*1458 FILLER_13_136
*1459 FILLER_13_152
*1460 FILLER_13_163
*1461 FILLER_13_167
*1462 FILLER_13_169
*1463 FILLER_13_181
*1464 FILLER_13_20
*1465 FILLER_13_203
*1466 FILLER_13_215
*1467 FILLER_13_223
*1468 FILLER_13_241
*1469 FILLER_13_253
*1470 FILLER_13_266
*1471 FILLER_13_274
*1472 FILLER_13_281
*1473 FILLER_13_301
*1474 FILLER_13_313
*1475 FILLER_13_32
*1476 FILLER_13_321
*1477 FILLER_13_332
*1478 FILLER_13_337
*1479 FILLER_13_349
*1480 FILLER_13_366
*1481 FILLER_13_374
*1482 FILLER_13_379
*1483 FILLER_13_388
*1484 FILLER_13_403
*1485 FILLER_13_414
*1486 FILLER_13_421
*1487 FILLER_13_433
*1488 FILLER_13_44
*1489 FILLER_13_445
*1490 FILLER_13_457
*1491 FILLER_13_469
*1492 FILLER_13_481
*1493 FILLER_13_500
*1494 FILLER_13_505
*1495 FILLER_13_517
*1496 FILLER_13_528
*1497 FILLER_13_540
*1498 FILLER_13_552
*1499 FILLER_13_561
*1500 FILLER_13_57
*1501 FILLER_13_573
*1502 FILLER_13_585
*1503 FILLER_13_597
*1504 FILLER_13_609
*1505 FILLER_13_615
*1506 FILLER_13_617
*1507 FILLER_13_7
*1508 FILLER_13_74
*1509 FILLER_13_82
*1510 FILLER_13_94
*1511 FILLER_14_100
*1512 FILLER_14_112
*1513 FILLER_14_118
*1514 FILLER_14_136
*1515 FILLER_14_141
*1516 FILLER_14_153
*1517 FILLER_14_161
*1518 FILLER_14_169
*1519 FILLER_14_178
*1520 FILLER_14_190
*1521 FILLER_14_197
*1522 FILLER_14_20
*1523 FILLER_14_209
*1524 FILLER_14_221
*1525 FILLER_14_235
*1526 FILLER_14_247
*1527 FILLER_14_251
*1528 FILLER_14_253
*1529 FILLER_14_265
*1530 FILLER_14_277
*1531 FILLER_14_285
*1532 FILLER_14_29
*1533 FILLER_14_3
*1534 FILLER_14_302
*1535 FILLER_14_309
*1536 FILLER_14_340
*1537 FILLER_14_352
*1538 FILLER_14_365
*1539 FILLER_14_377
*1540 FILLER_14_384
*1541 FILLER_14_393
*1542 FILLER_14_400
*1543 FILLER_14_408
*1544 FILLER_14_41
*1545 FILLER_14_416
*1546 FILLER_14_421
*1547 FILLER_14_433
*1548 FILLER_14_452
*1549 FILLER_14_464
*1550 FILLER_14_477
*1551 FILLER_14_485
*1552 FILLER_14_493
*1553 FILLER_14_511
*1554 FILLER_14_523
*1555 FILLER_14_531
*1556 FILLER_14_533
*1557 FILLER_14_545
*1558 FILLER_14_564
*1559 FILLER_14_576
*1560 FILLER_14_589
*1561 FILLER_14_59
*1562 FILLER_14_601
*1563 FILLER_14_613
*1564 FILLER_14_74
*1565 FILLER_14_82
*1566 FILLER_14_85
*1567 FILLER_14_93
*1568 FILLER_15_104
*1569 FILLER_15_125
*1570 FILLER_15_133
*1571 FILLER_15_140
*1572 FILLER_15_152
*1573 FILLER_15_156
*1574 FILLER_15_164
*1575 FILLER_15_176
*1576 FILLER_15_184
*1577 FILLER_15_201
*1578 FILLER_15_213
*1579 FILLER_15_220
*1580 FILLER_15_225
*1581 FILLER_15_229
*1582 FILLER_15_235
*1583 FILLER_15_247
*1584 FILLER_15_255
*1585 FILLER_15_259
*1586 FILLER_15_26
*1587 FILLER_15_271
*1588 FILLER_15_279
*1589 FILLER_15_281
*1590 FILLER_15_289
*1591 FILLER_15_294
*1592 FILLER_15_306
*1593 FILLER_15_318
*1594 FILLER_15_324
*1595 FILLER_15_332
*1596 FILLER_15_337
*1597 FILLER_15_349
*1598 FILLER_15_361
*1599 FILLER_15_373
*1600 FILLER_15_38
*1601 FILLER_15_385
*1602 FILLER_15_391
*1603 FILLER_15_393
*1604 FILLER_15_409
*1605 FILLER_15_419
*1606 FILLER_15_432
*1607 FILLER_15_444
*1608 FILLER_15_449
*1609 FILLER_15_461
*1610 FILLER_15_47
*1611 FILLER_15_473
*1612 FILLER_15_485
*1613 FILLER_15_497
*1614 FILLER_15_503
*1615 FILLER_15_505
*1616 FILLER_15_526
*1617 FILLER_15_538
*1618 FILLER_15_55
*1619 FILLER_15_550
*1620 FILLER_15_558
*1621 FILLER_15_561
*1622 FILLER_15_57
*1623 FILLER_15_573
*1624 FILLER_15_585
*1625 FILLER_15_597
*1626 FILLER_15_6
*1627 FILLER_15_609
*1628 FILLER_15_615
*1629 FILLER_15_617
*1630 FILLER_15_63
*1631 FILLER_15_71
*1632 FILLER_15_83
*1633 FILLER_15_87
*1634 FILLER_16_100
*1635 FILLER_16_11
*1636 FILLER_16_112
*1637 FILLER_16_124
*1638 FILLER_16_134
*1639 FILLER_16_144
*1640 FILLER_16_156
*1641 FILLER_16_164
*1642 FILLER_16_175
*1643 FILLER_16_18
*1644 FILLER_16_186
*1645 FILLER_16_194
*1646 FILLER_16_197
*1647 FILLER_16_209
*1648 FILLER_16_217
*1649 FILLER_16_223
*1650 FILLER_16_233
*1651 FILLER_16_237
*1652 FILLER_16_245
*1653 FILLER_16_251
*1654 FILLER_16_253
*1655 FILLER_16_26
*1656 FILLER_16_274
*1657 FILLER_16_286
*1658 FILLER_16_29
*1659 FILLER_16_299
*1660 FILLER_16_3
*1661 FILLER_16_307
*1662 FILLER_16_317
*1663 FILLER_16_329
*1664 FILLER_16_341
*1665 FILLER_16_353
*1666 FILLER_16_361
*1667 FILLER_16_372
*1668 FILLER_16_383
*1669 FILLER_16_390
*1670 FILLER_16_402
*1671 FILLER_16_414
*1672 FILLER_16_421
*1673 FILLER_16_429
*1674 FILLER_16_435
*1675 FILLER_16_447
*1676 FILLER_16_459
*1677 FILLER_16_471
*1678 FILLER_16_475
*1679 FILLER_16_477
*1680 FILLER_16_48
*1681 FILLER_16_489
*1682 FILLER_16_501
*1683 FILLER_16_505
*1684 FILLER_16_509
*1685 FILLER_16_518
*1686 FILLER_16_530
*1687 FILLER_16_533
*1688 FILLER_16_545
*1689 FILLER_16_550
*1690 FILLER_16_562
*1691 FILLER_16_574
*1692 FILLER_16_586
*1693 FILLER_16_589
*1694 FILLER_16_60
*1695 FILLER_16_601
*1696 FILLER_16_613
*1697 FILLER_16_72
*1698 FILLER_16_85
*1699 FILLER_16_93
*1700 FILLER_17_101
*1701 FILLER_17_108
*1702 FILLER_17_113
*1703 FILLER_17_119
*1704 FILLER_17_133
*1705 FILLER_17_145
*1706 FILLER_17_150
*1707 FILLER_17_161
*1708 FILLER_17_167
*1709 FILLER_17_169
*1710 FILLER_17_181
*1711 FILLER_17_189
*1712 FILLER_17_198
*1713 FILLER_17_20
*1714 FILLER_17_210
*1715 FILLER_17_222
*1716 FILLER_17_232
*1717 FILLER_17_244
*1718 FILLER_17_253
*1719 FILLER_17_265
*1720 FILLER_17_27
*1721 FILLER_17_277
*1722 FILLER_17_281
*1723 FILLER_17_300
*1724 FILLER_17_311
*1725 FILLER_17_323
*1726 FILLER_17_335
*1727 FILLER_17_337
*1728 FILLER_17_345
*1729 FILLER_17_357
*1730 FILLER_17_379
*1731 FILLER_17_387
*1732 FILLER_17_39
*1733 FILLER_17_391
*1734 FILLER_17_393
*1735 FILLER_17_405
*1736 FILLER_17_417
*1737 FILLER_17_429
*1738 FILLER_17_441
*1739 FILLER_17_447
*1740 FILLER_17_449
*1741 FILLER_17_455
*1742 FILLER_17_47
*1743 FILLER_17_475
*1744 FILLER_17_496
*1745 FILLER_17_505
*1746 FILLER_17_512
*1747 FILLER_17_52
*1748 FILLER_17_523
*1749 FILLER_17_535
*1750 FILLER_17_551
*1751 FILLER_17_559
*1752 FILLER_17_561
*1753 FILLER_17_57
*1754 FILLER_17_573
*1755 FILLER_17_578
*1756 FILLER_17_598
*1757 FILLER_17_610
*1758 FILLER_17_617
*1759 FILLER_17_65
*1760 FILLER_17_7
*1761 FILLER_17_72
*1762 FILLER_17_78
*1763 FILLER_17_89
*1764 FILLER_18_116
*1765 FILLER_18_124
*1766 FILLER_18_130
*1767 FILLER_18_138