*SPEF "ieee 1481-1999"
*DESIGN "Flash"
*DATE "11:11:11 Fri 11 11, 1111"
*VENDOR "OpenRCX"
*PROGRAM "Parallel Extraction"
*VERSION "1.0"
*DESIGN_FLOW "NAME_SCOPE LOCAL" "PIN_CAP NONE"
*DIVIDER /
*DELIMITER :
*BUS_DELIMITER []
*T_UNIT 1 NS
*C_UNIT 1 PF
*R_UNIT 1 OHM
*L_UNIT 1 HENRY

*NAME_MAP
*1 net111
*2 flash_io0_read
*3 net157
*4 net112
*5 flash_io1_read
*6 net113
*7 net114
*8 flash_sck
*9 net115
*10 net116
*11 net117
*12 net118
*13 net119
*14 net120
*15 net121
*16 net122
*17 net123
*18 sram_addr1[0]
*19 sram_addr1[1]
*20 sram_addr1[2]
*21 sram_addr1[3]
*22 sram_addr1[4]
*23 sram_addr1[5]
*24 sram_addr1[6]
*25 sram_addr1[7]
*26 sram_addr1[8]
*27 sram_clk0
*28 sram_clk1
*29 net158
*30 sram_csb1
*31 net124
*32 net134
*33 net135
*34 net136
*35 net137
*36 net138
*37 net139
*38 net140
*39 net141
*40 net142
*41 net143
*42 net125
*43 net144
*44 net145
*45 net146
*46 net147
*47 net148
*48 net149
*49 net150
*50 net151
*51 net152
*52 net153
*53 net126
*54 net154
*55 net155
*56 net127
*57 net128
*58 net129
*59 net130
*60 net131
*61 net132
*62 net133
*63 sram_dout0[0]
*64 sram_dout0[10]
*65 sram_dout0[11]
*66 sram_dout0[12]
*67 sram_dout0[13]
*68 sram_dout0[14]
*69 sram_dout0[15]
*70 sram_dout0[16]
*71 sram_dout0[17]
*72 sram_dout0[18]
*73 sram_dout0[19]
*74 sram_dout0[1]
*75 sram_dout0[20]
*76 sram_dout0[21]
*77 sram_dout0[22]
*78 sram_dout0[23]
*79 sram_dout0[24]
*80 sram_dout0[25]
*81 sram_dout0[26]
*82 sram_dout0[27]
*83 sram_dout0[28]
*84 sram_dout0[29]
*85 sram_dout0[2]
*86 sram_dout0[30]
*87 sram_dout0[31]
*88 sram_dout0[3]
*89 sram_dout0[4]
*90 sram_dout0[5]
*91 sram_dout0[6]
*92 sram_dout0[7]
*93 sram_dout0[8]
*94 sram_dout0[9]
*95 sram_dout1[0]
*96 sram_dout1[10]
*97 sram_dout1[11]
*98 sram_dout1[12]
*99 sram_dout1[13]
*100 sram_dout1[14]
*101 sram_dout1[15]
*102 sram_dout1[16]
*103 sram_dout1[17]
*104 sram_dout1[18]
*105 sram_dout1[19]
*106 sram_dout1[1]
*107 sram_dout1[20]
*108 sram_dout1[21]
*109 sram_dout1[22]
*110 sram_dout1[23]
*111 sram_dout1[24]
*112 sram_dout1[25]
*113 sram_dout1[26]
*114 sram_dout1[27]
*115 sram_dout1[28]
*116 sram_dout1[29]
*117 sram_dout1[2]
*118 sram_dout1[30]
*119 sram_dout1[31]
*120 sram_dout1[3]
*121 sram_dout1[4]
*122 sram_dout1[5]
*123 sram_dout1[6]
*124 sram_dout1[7]
*125 sram_dout1[8]
*126 sram_dout1[9]
*127 net159
*128 net160
*129 net161
*130 net162
*131 net163
*134 wb_ack_o
*135 wb_adr_i[0]
*136 wb_adr_i[10]
*137 wb_adr_i[11]
*138 wb_adr_i[12]
*139 wb_adr_i[13]
*140 wb_adr_i[14]
*141 wb_adr_i[15]
*142 wb_adr_i[16]
*143 wb_adr_i[17]
*144 wb_adr_i[18]
*145 wb_adr_i[19]
*146 wb_adr_i[1]
*147 wb_adr_i[20]
*148 wb_adr_i[21]
*149 wb_adr_i[22]
*150 wb_adr_i[23]
*151 wb_adr_i[2]
*152 wb_adr_i[3]
*153 wb_adr_i[4]
*154 wb_adr_i[5]
*155 wb_adr_i[6]
*156 wb_adr_i[7]
*157 wb_adr_i[8]
*158 wb_adr_i[9]
*159 wb_clk_i
*160 wb_cyc_i
*161 wb_data_i[0]
*162 wb_data_i[10]
*163 wb_data_i[11]
*164 wb_data_i[12]
*165 wb_data_i[13]
*166 wb_data_i[14]
*167 wb_data_i[15]
*168 wb_data_i[16]
*169 wb_data_i[17]
*170 wb_data_i[18]
*171 wb_data_i[19]
*172 wb_data_i[1]
*173 wb_data_i[20]
*174 wb_data_i[21]
*175 wb_data_i[22]
*176 wb_data_i[23]
*177 wb_data_i[24]
*178 wb_data_i[25]
*179 wb_data_i[26]
*180 wb_data_i[27]
*181 wb_data_i[28]
*182 wb_data_i[29]
*183 wb_data_i[2]
*184 wb_data_i[30]
*185 wb_data_i[31]
*186 wb_data_i[3]
*187 wb_data_i[4]
*188 wb_data_i[5]
*189 wb_data_i[6]
*190 wb_data_i[7]
*191 wb_data_i[8]
*192 wb_data_i[9]
*193 wb_data_o[0]
*194 wb_data_o[10]
*195 wb_data_o[11]
*196 wb_data_o[12]
*197 wb_data_o[13]
*198 wb_data_o[14]
*199 wb_data_o[15]
*200 wb_data_o[16]
*201 wb_data_o[17]
*202 wb_data_o[18]
*203 wb_data_o[19]
*204 wb_data_o[1]
*205 wb_data_o[20]
*206 wb_data_o[21]
*207 wb_data_o[22]
*208 wb_data_o[23]
*209 wb_data_o[24]
*210 wb_data_o[25]
*211 wb_data_o[26]
*212 wb_data_o[27]
*213 wb_data_o[28]
*214 wb_data_o[29]
*215 wb_data_o[2]
*216 wb_data_o[30]
*217 wb_data_o[31]
*218 wb_data_o[3]
*219 wb_data_o[4]
*220 wb_data_o[5]
*221 wb_data_o[6]
*222 wb_data_o[7]
*223 wb_data_o[8]
*224 wb_data_o[9]
*225 net156
*226 wb_rst_i
*227 wb_sel_i[0]
*228 wb_sel_i[1]
*229 wb_sel_i[2]
*230 wb_sel_i[3]
*231 wb_stall_o
*232 wb_stb_i
*233 wb_we_i
*234 _000_
*235 _001_
*236 _002_
*237 _003_
*238 _004_
*239 _005_
*240 _006_
*241 _007_
*242 _008_
*243 _009_
*244 _010_
*245 _011_
*246 _012_
*247 _013_
*248 _014_
*249 _015_
*250 _016_
*251 _017_
*252 _018_
*253 _019_
*254 _020_
*255 _021_
*256 _022_
*257 _023_
*258 _024_
*259 _025_
*260 _026_
*261 _027_
*262 _028_
*263 _029_
*264 _030_
*265 _031_
*266 _032_
*267 _033_
*268 _034_
*269 _035_
*270 _036_
*271 _037_
*272 _038_
*273 _039_
*274 _040_
*275 _041_
*276 _042_
*277 _043_
*278 _044_
*279 _045_
*280 _046_
*281 _047_
*282 _048_
*283 _049_
*284 _050_
*285 _051_
*286 _052_
*287 _053_
*288 _054_
*289 _055_
*290 _056_
*291 _057_
*292 _058_
*293 _059_
*294 _060_
*295 _061_
*296 _062_
*297 _063_
*298 _064_
*299 _065_
*300 _066_
*301 _067_
*302 _068_
*303 _069_
*304 _070_
*305 _071_
*306 _072_
*307 _073_
*308 _074_
*309 _075_
*310 _076_
*311 _077_
*312 _078_
*313 _079_
*314 _080_
*315 _081_
*316 _082_
*317 _083_
*318 _084_
*319 _085_
*320 _086_
*321 _087_
*322 _088_
*323 _089_
*324 _090_
*325 _091_
*326 _092_
*327 _093_
*328 _094_
*329 _095_
*330 _096_
*331 _097_
*332 _098_
*333 _099_
*334 _100_
*335 _101_
*336 _102_
*337 _103_
*338 _104_
*339 _105_
*340 _106_
*341 _107_
*342 _108_
*343 _109_
*344 _110_
*345 _111_
*346 _112_
*347 _113_
*348 _114_
*349 _115_
*350 _116_
*351 _117_
*352 _118_
*353 _119_
*354 _120_
*355 _121_
*356 _122_
*357 _123_
*358 _124_
*359 _125_
*360 _126_
*361 _127_
*362 _128_
*363 _129_
*364 _130_
*365 _131_
*366 _132_
*367 _133_
*368 _134_
*369 _135_
*370 _136_
*371 _137_
*372 _138_
*373 _139_
*374 _140_
*375 _141_
*376 _142_
*377 _143_
*378 _144_
*379 _145_
*380 _146_
*381 _147_
*382 _148_
*383 _149_
*384 _150_
*385 _151_
*386 _152_
*387 _153_
*388 _154_
*389 _155_
*390 _156_
*391 _157_
*392 _158_
*393 _159_
*394 _160_
*395 _161_
*396 _162_
*397 _163_
*398 _164_
*399 _165_
*400 _166_
*401 _167_
*402 _168_
*403 _169_
*404 _170_
*405 _171_
*406 _172_
*407 _173_
*408 _174_
*409 _175_
*410 _176_
*411 _177_
*412 _178_
*413 _179_
*414 _180_
*415 _181_
*416 _182_
*417 _183_
*418 _184_
*419 _185_
*420 _186_
*421 _187_
*422 _188_
*423 _189_
*424 _190_
*425 _191_
*426 _192_
*427 _193_
*428 _194_
*429 _195_
*430 _196_
*431 _197_
*432 _198_
*433 _199_
*434 _200_
*435 _201_
*436 _202_
*437 _203_
*438 _204_
*439 _205_
*440 _206_
*441 _207_
*442 _208_
*443 _209_
*444 _210_
*445 _211_
*446 _212_
*447 _213_
*448 _214_
*449 _215_
*450 _216_
*451 _217_
*452 _218_
*453 _219_
*454 flashBuffer\.flashCacheReadReady
*455 net1
*456 net10
*457 net100
*458 net101
*459 net102
*460 net103
*461 net104
*462 net105
*463 net106
*464 net107
*465 net108
*466 net109
*467 net11
*468 net110
*469 net12
*470 net13
*471 net14
*472 net15
*473 net16
*474 net17
*475 net18
*476 net19
*477 net2
*478 net20
*479 net21
*480 net22
*481 net23
*482 net24
*483 net25
*484 net26
*485 net27
*486 net28
*487 net29
*488 net3
*489 net30
*490 net31
*491 net32
*492 net33
*493 net34
*494 net35
*495 net36
*496 net37
*497 net38
*498 net39
*499 net4
*500 net40
*501 net41
*502 net42
*503 net43
*504 net44
*505 net45
*506 net46
*507 net47
*508 net48
*509 net49
*510 net5
*511 net50
*512 net51
*513 net52
*514 net53
*515 net54
*516 net55
*517 net56
*518 net57
*519 net58
*520 net59
*521 net6
*522 net60
*523 net61
*524 net62
*525 net63
*526 net64
*527 net65
*528 net66
*529 net67
*530 net68
*531 net69
*532 net7
*533 net70
*534 net71
*535 net72
*536 net73
*537 net74
*538 net75
*539 net76
*540 net77
*541 net78
*542 net79
*543 net8
*544 net80
*545 net81
*546 net82
*547 net83
*548 net84
*549 net85
*550 net86
*551 net87
*552 net88
*553 net89
*554 net9
*555 net90
*556 net91
*557 net92
*558 net93
*559 net94
*560 net95
*561 net96
*562 net97
*563 net98
*564 net99
*565 wbFlashInterface\.currentAddress\[10\]
*566 wbFlashInterface\.currentAddress\[11\]
*567 wbFlashInterface\.currentAddress\[12\]
*568 wbFlashInterface\.currentAddress\[13\]
*569 wbFlashInterface\.currentAddress\[14\]
*570 wbFlashInterface\.currentAddress\[15\]
*571 wbFlashInterface\.currentAddress\[16\]
*572 wbFlashInterface\.currentAddress\[17\]
*573 wbFlashInterface\.currentAddress\[18\]
*574 wbFlashInterface\.currentAddress\[19\]
*575 wbFlashInterface\.currentAddress\[20\]
*576 wbFlashInterface\.currentAddress\[21\]
*577 wbFlashInterface\.currentAddress\[22\]
*578 wbFlashInterface\.currentAddress\[23\]
*579 wbFlashInterface\.currentAddress\[2\]
*580 wbFlashInterface\.currentAddress\[3\]
*581 wbFlashInterface\.currentAddress\[4\]
*582 wbFlashInterface\.currentAddress\[5\]
*583 wbFlashInterface\.currentAddress\[6\]
*584 wbFlashInterface\.currentAddress\[7\]
*585 wbFlashInterface\.currentAddress\[8\]
*586 wbFlashInterface\.currentAddress\[9\]
*587 wbFlashInterface\.currentByteSelect\[0\]
*588 wbFlashInterface\.currentByteSelect\[1\]
*589 wbFlashInterface\.currentByteSelect\[2\]
*590 wbFlashInterface\.currentByteSelect\[3\]
*591 wbFlashInterface\.state\[0\]
*592 wbFlashInterface\.state\[1\]
*593 FILLER_0_106
*594 FILLER_0_113
*595 FILLER_0_121
*596 FILLER_0_131
*597 FILLER_0_139
*598 FILLER_0_144
*599 FILLER_0_154
*600 FILLER_0_161
*601 FILLER_0_167
*602 FILLER_0_175
*603 FILLER_0_183
*604 FILLER_0_19
*605 FILLER_0_190
*606 FILLER_0_197
*607 FILLER_0_207
*608 FILLER_0_214
*609 FILLER_0_222
*610 FILLER_0_225
*611 FILLER_0_233
*612 FILLER_0_240
*613 FILLER_0_244
*614 FILLER_0_248
*615 FILLER_0_253
*616 FILLER_0_260
*617 FILLER_0_267
*618 FILLER_0_27
*619 FILLER_0_274
*620 FILLER_0_284
*621 FILLER_0_292
*622 FILLER_0_296
*623 FILLER_0_300
*624 FILLER_0_304
*625 FILLER_0_312
*626 FILLER_0_316
*627 FILLER_0_320
*628 FILLER_0_327
*629 FILLER_0_33
*630 FILLER_0_335
*631 FILLER_0_347
*632 FILLER_0_355
*633 FILLER_0_359
*634 FILLER_0_363
*635 FILLER_0_365
*636 FILLER_0_377
*637 FILLER_0_387
*638 FILLER_0_391
*639 FILLER_0_393
*640 FILLER_0_40
*641 FILLER_0_403
*642 FILLER_0_410
*643 FILLER_0_418
*644 FILLER_0_425
*645 FILLER_0_429
*646 FILLER_0_434
*647 FILLER_0_441
*648 FILLER_0_447
*649 FILLER_0_449
*650 FILLER_0_457
*651 FILLER_0_461
*652 FILLER_0_466
*653 FILLER_0_47
*654 FILLER_0_474
*655 FILLER_0_477
*656 FILLER_0_482
*657 FILLER_0_489
*658 FILLER_0_493
*659 FILLER_0_498
*660 FILLER_0_505
*661 FILLER_0_509
*662 FILLER_0_514
*663 FILLER_0_521
*664 FILLER_0_529
*665 FILLER_0_537
*666 FILLER_0_541
*667 FILLER_0_546
*668 FILLER_0_55
*669 FILLER_0_553
*670 FILLER_0_559
*671 FILLER_0_565
*672 FILLER_0_573
*673 FILLER_0_578
*674 FILLER_0_586
*675 FILLER_0_593
*676 FILLER_0_600
*677 FILLER_0_61
*678 FILLER_0_612
*679 FILLER_0_620
*680 FILLER_0_624
*681 FILLER_0_68
*682 FILLER_0_74
*683 FILLER_0_78
*684 FILLER_0_85
*685 FILLER_0_90
*686 FILLER_0_98
*687 FILLER_10_106
*688 FILLER_10_113
*689 FILLER_10_122
*690 FILLER_10_134
*691 FILLER_10_14
*692 FILLER_10_141
*693 FILLER_10_145
*694 FILLER_10_152
*695 FILLER_10_156
*696 FILLER_10_167
*697 FILLER_10_175
*698 FILLER_10_186
*699 FILLER_10_194
*700 FILLER_10_197
*701 FILLER_10_209
*702 FILLER_10_221
*703 FILLER_10_233
*704 FILLER_10_245
*705 FILLER_10_251
*706 FILLER_10_253
*707 FILLER_10_26
*708 FILLER_10_265
*709 FILLER_10_277
*710 FILLER_10_289
*711 FILLER_10_29
*712 FILLER_10_301
*713 FILLER_10_307
*714 FILLER_10_309
*715 FILLER_10_321
*716 FILLER_10_333
*717 FILLER_10_345
*718 FILLER_10_357
*719 FILLER_10_363
*720 FILLER_10_365
*721 FILLER_10_377
*722 FILLER_10_389
*723 FILLER_10_401
*724 FILLER_10_41
*725 FILLER_10_413
*726 FILLER_10_419
*727 FILLER_10_421
*728 FILLER_10_433
*729 FILLER_10_445
*730 FILLER_10_457
*731 FILLER_10_469
*732 FILLER_10_475
*733 FILLER_10_477
*734 FILLER_10_489
*735 FILLER_10_501
*736 FILLER_10_513
*737 FILLER_10_525
*738 FILLER_10_53
*739 FILLER_10_531
*740 FILLER_10_533
*741 FILLER_10_545
*742 FILLER_10_557
*743 FILLER_10_569
*744 FILLER_10_581
*745 FILLER_10_587
*746 FILLER_10_589
*747 FILLER_10_601
*748 FILLER_10_613
*749 FILLER_10_65
*750 FILLER_10_7
*751 FILLER_10_77
*752 FILLER_10_83
*753 FILLER_10_94
*754 FILLER_11_108
*755 FILLER_11_119
*756 FILLER_11_12
*757 FILLER_11_131
*758 FILLER_11_143
*759 FILLER_11_157
*760 FILLER_11_165
*761 FILLER_11_169
*762 FILLER_11_183
*763 FILLER_11_193
*764 FILLER_11_205
*765 FILLER_11_217
*766 FILLER_11_22
*767 FILLER_11_223
*768 FILLER_11_225
*769 FILLER_11_237
*770 FILLER_11_249
*771 FILLER_11_261
*772 FILLER_11_273
*773 FILLER_11_279
*774 FILLER_11_281
*775 FILLER_11_293
*776 FILLER_11_305
*777 FILLER_11_317
*778 FILLER_11_329
*779 FILLER_11_335
*780 FILLER_11_337
*781 FILLER_11_34
*782 FILLER_11_349
*783 FILLER_11_361
*784 FILLER_11_373
*785 FILLER_11_385
*786 FILLER_11_391
*787 FILLER_11_393
*788 FILLER_11_405
*789 FILLER_11_417
*790 FILLER_11_429
*791 FILLER_11_441
*792 FILLER_11_447
*793 FILLER_11_449
*794 FILLER_11_46
*795 FILLER_11_461
*796 FILLER_11_473
*797 FILLER_11_485
*798 FILLER_11_497
*799 FILLER_11_503
*800 FILLER_11_505
*801 FILLER_11_517
*802 FILLER_11_52
*803 FILLER_11_529
*804 FILLER_11_541
*805 FILLER_11_553
*806 FILLER_11_559
*807 FILLER_11_561
*808 FILLER_11_57
*809 FILLER_11_573
*810 FILLER_11_585
*811 FILLER_11_597
*812 FILLER_11_6
*813 FILLER_11_609
*814 FILLER_11_615
*815 FILLER_11_617
*816 FILLER_11_79
*817 FILLER_11_91
*818 FILLER_11_97
*819 FILLER_12_103
*820 FILLER_12_123
*821 FILLER_12_135
*822 FILLER_12_139
*823 FILLER_12_141
*824 FILLER_12_151
*825 FILLER_12_161
*826 FILLER_12_169
*827 FILLER_12_178
*828 FILLER_12_192
*829 FILLER_12_203
*830 FILLER_12_215
*831 FILLER_12_227
*832 FILLER_12_239
*833 FILLER_12_24
*834 FILLER_12_251
*835 FILLER_12_253
*836 FILLER_12_265
*837 FILLER_12_277
*838 FILLER_12_289
*839 FILLER_12_29
*840 FILLER_12_3
*841 FILLER_12_301
*842 FILLER_12_307
*843 FILLER_12_309
*844 FILLER_12_321
*845 FILLER_12_333
*846 FILLER_12_345
*847 FILLER_12_357
*848 FILLER_12_363
*849 FILLER_12_365
*850 FILLER_12_377
*851 FILLER_12_389
*852 FILLER_12_401
*853 FILLER_12_41
*854 FILLER_12_413
*855 FILLER_12_419
*856 FILLER_12_421
*857 FILLER_12_433
*858 FILLER_12_445
*859 FILLER_12_45
*860 FILLER_12_457
*861 FILLER_12_469
*862 FILLER_12_475
*863 FILLER_12_477
*864 FILLER_12_489
*865 FILLER_12_501
*866 FILLER_12_513
*867 FILLER_12_525
*868 FILLER_12_53
*869 FILLER_12_531
*870 FILLER_12_533
*871 FILLER_12_545
*872 FILLER_12_557
*873 FILLER_12_569
*874 FILLER_12_581
*875 FILLER_12_587
*876 FILLER_12_589
*877 FILLER_12_60
*878 FILLER_12_601
*879 FILLER_12_613
*880 FILLER_12_7
*881 FILLER_12_72
*882 FILLER_12_79
*883 FILLER_12_83
*884 FILLER_12_95
*885 FILLER_13_103
*886 FILLER_13_111
*887 FILLER_13_113
*888 FILLER_13_125
*889 FILLER_13_137
*890 FILLER_13_141
*891 FILLER_13_158
*892 FILLER_13_16
*893 FILLER_13_166
*894 FILLER_13_169
*895 FILLER_13_181
*896 FILLER_13_191
*897 FILLER_13_203
*898 FILLER_13_215
*899 FILLER_13_223
*900 FILLER_13_225
*901 FILLER_13_237
*902 FILLER_13_24
*903 FILLER_13_249
*904 FILLER_13_261
*905 FILLER_13_273
*906 FILLER_13_279
*907 FILLER_13_281
*908 FILLER_13_293
*909 FILLER_13_305
*910 FILLER_13_317
*911 FILLER_13_329
*912 FILLER_13_335
*913 FILLER_13_337
*914 FILLER_13_349
*915 FILLER_13_36
*916 FILLER_13_361
*917 FILLER_13_373
*918 FILLER_13_385
*919 FILLER_13_391
*920 FILLER_13_393
*921 FILLER_13_405
*922 FILLER_13_417
*923 FILLER_13_429
*924 FILLER_13_441
*925 FILLER_13_447
*926 FILLER_13_449
*927 FILLER_13_461
*928 FILLER_13_473
*929 FILLER_13_48
*930 FILLER_13_485
*931 FILLER_13_497
*932 FILLER_13_503
*933 FILLER_13_505
*934 FILLER_13_517
*935 FILLER_13_529
*936 FILLER_13_541
*937 FILLER_13_553
*938 FILLER_13_559
*939 FILLER_13_561
*940 FILLER_13_573
*941 FILLER_13_585
*942 FILLER_13_597
*943 FILLER_13_609
*944 FILLER_13_615
*945 FILLER_13_617
*946 FILLER_13_7
*947 FILLER_13_73
*948 FILLER_13_77
*949 FILLER_13_91
*950 FILLER_14_104
*951 FILLER_14_116
*952 FILLER_14_124
*953 FILLER_14_136
*954 FILLER_14_14
*955 FILLER_14_141
*956 FILLER_14_146
*957 FILLER_14_158
*958 FILLER_14_170
*959 FILLER_14_182
*960 FILLER_14_191
*961 FILLER_14_195
*962 FILLER_14_197
*963 FILLER_14_209
*964 FILLER_14_221
*965 FILLER_14_233
*966 FILLER_14_24
*967 FILLER_14_245
*968 FILLER_14_251
*969 FILLER_14_253
*970 FILLER_14_265
*971 FILLER_14_277
*972 FILLER_14_289
*973 FILLER_14_29
*974 FILLER_14_301
*975 FILLER_14_307
*976 FILLER_14_309
*977 FILLER_14_321
*978 FILLER_14_333
*979 FILLER_14_345
*980 FILLER_14_357
*981 FILLER_14_363
*982 FILLER_14_365
*983 FILLER_14_377
*984 FILLER_14_389
*985 FILLER_14_401
*986 FILLER_14_41
*987 FILLER_14_413
*988 FILLER_14_419
*989 FILLER_14_421
*990 FILLER_14_433
*991 FILLER_14_445
*992 FILLER_14_457
*993 FILLER_14_469
*994 FILLER_14_475
*995 FILLER_14_477
*996 FILLER_14_489
*997 FILLER_14_501
*998 FILLER_14_513
*999 FILLER_14_525
*1000 FILLER_14_53
*1001 FILLER_14_531
*1002 FILLER_14_533
*1003 FILLER_14_545
*1004 FILLER_14_557
*1005 FILLER_14_569
*1006 FILLER_14_581
*1007 FILLER_14_587
*1008 FILLER_14_589
*1009 FILLER_14_6
*1010 FILLER_14_601
*1011 FILLER_14_613
*1012 FILLER_14_65
*1013 FILLER_14_77
*1014 FILLER_14_83
*1015 FILLER_14_92
*1016 FILLER_15_110
*1017 FILLER_15_129
*1018 FILLER_15_141
*1019 FILLER_15_153
*1020 FILLER_15_165
*1021 FILLER_15_174
*1022 FILLER_15_182
*1023 FILLER_15_201
*1024 FILLER_15_213
*1025 FILLER_15_221
*1026 FILLER_15_225
*1027 FILLER_15_237
*1028 FILLER_15_249
*1029 FILLER_15_261
*1030 FILLER_15_273
*1031 FILLER_15_279
*1032 FILLER_15_281
*1033 FILLER_15_293
*1034 FILLER_15_305
*1035 FILLER_15_317
*1036 FILLER_15_329
*1037 FILLER_15_335
*1038 FILLER_15_337
*1039 FILLER_15_34
*1040 FILLER_15_349
*1041 FILLER_15_361
*1042 FILLER_15_373
*1043 FILLER_15_385
*1044 FILLER_15_391
*1045 FILLER_15_393
*1046 FILLER_15_405
*1047 FILLER_15_417
*1048 FILLER_15_429
*1049 FILLER_15_441
*1050 FILLER_15_447
*1051 FILLER_15_449
*1052 FILLER_15_46
*1053 FILLER_15_461
*1054 FILLER_15_473
*1055 FILLER_15_485
*1056 FILLER_15_497
*1057 FILLER_15_503
*1058 FILLER_15_505
*1059 FILLER_15_517
*1060 FILLER_15_529
*1061 FILLER_15_54
*1062 FILLER_15_541
*1063 FILLER_15_553
*1064 FILLER_15_559
*1065 FILLER_15_561
*1066 FILLER_15_57
*1067 FILLER_15_573
*1068 FILLER_15_585
*1069 FILLER_15_597
*1070 FILLER_15_6
*1071 FILLER_15_609
*1072 FILLER_15_615
*1073 FILLER_15_617
*1074 FILLER_15_69
*1075 FILLER_15_73
*1076 FILLER_15_77
*1077 FILLER_15_86
*1078 FILLER_15_98
*1079 FILLER_16_102
*1080 FILLER_16_106
*1081 FILLER_16_111
*1082 FILLER_16_123
*1083 FILLER_16_127
*1084 FILLER_16_133
*1085 FILLER_16_139
*1086 FILLER_16_141
*1087 FILLER_16_15
*1088 FILLER_16_153
*1089 FILLER_16_170
*1090 FILLER_16_180
*1091 FILLER_16_184
*1092 FILLER_16_191
*1093 FILLER_16_195
*1094 FILLER_16_197
*1095 FILLER_16_209
*1096 FILLER_16_21
*1097 FILLER_16_221
*1098 FILLER_16_233
*1099 FILLER_16_245
*1100 FILLER_16_251
*1101 FILLER_16_253
*1102 FILLER_16_265
*1103 FILLER_16_27
*1104 FILLER_16_277
*1105 FILLER_16_289
*1106 FILLER_16_29
*1107 FILLER_16_301
*1108 FILLER_16_307
*1109 FILLER_16_309
*1110 FILLER_16_321
*1111 FILLER_16_333
*1112 FILLER_16_345
*1113 FILLER_16_357
*1114 FILLER_16_363
*1115 FILLER_16_365
*1116 FILLER_16_377
*1117 FILLER_16_389
*1118 FILLER_16_401
*1119 FILLER_16_41
*1120 FILLER_16_413
*1121 FILLER_16_419
*1122 FILLER_16_421
*1123 FILLER_16_433
*1124 FILLER_16_445
*1125 FILLER_16_457
*1126 FILLER_16_469
*1127 FILLER_16_475
*1128 FILLER_16_477
*1129 FILLER_16_489
*1130 FILLER_16_49
*1131 FILLER_16_501
*1132 FILLER_16_513
*1133 FILLER_16_525
*1134 FILLER_16_531
*1135 FILLER_16_533
*1136 FILLER_16_545
*1137 FILLER_16_557
*1138 FILLER_16_569
*1139 FILLER_16_581
*1140 FILLER_16_587
*1141 FILLER_16_589
*1142 FILLER_16_60
*1143 FILLER_16_601
*1144 FILLER_16_613
*1145 FILLER_16_7
*1146 FILLER_16_72
*1147 FILLER_16_90
*1148 FILLER_17_105
*1149 FILLER_17_111
*1150 FILLER_17_113
*1151 FILLER_17_125
*1152 FILLER_17_138
*1153 FILLER_17_148
*1154 FILLER_17_160
*1155 FILLER_17_169
*1156 FILLER_17_176
*1157 FILLER_17_180
*1158 FILLER_17_192
*1159 FILLER_17_204
*1160 FILLER_17_216
*1161 FILLER_17_225
*1162 FILLER_17_237
*1163 FILLER_17_249
*1164 FILLER_17_261
*1165 FILLER_17_27
*1166 FILLER_17_273
*1167 FILLER_17_279
*1168 FILLER_17_281
*1169 FILLER_17_293
*1170 FILLER_17_3
*1171 FILLER_17_305
*1172 FILLER_17_317
*1173 FILLER_17_329
*1174 FILLER_17_335
*1175 FILLER_17_337
*1176 FILLER_17_349
*1177 FILLER_17_35
*1178 FILLER_17_361
*1179 FILLER_17_373
*1180 FILLER_17_385
*1181 FILLER_17_391
*1182 FILLER_17_393
*1183 FILLER_17_405
*1184 FILLER_17_417
*1185 FILLER_17_429
*1186 FILLER_17_43
*1187 FILLER_17_441
*1188 FILLER_17_447
*1189 FILLER_17_449
*1190 FILLER_17_461
*1191 FILLER_17_473
*1192 FILLER_17_485
*1193 FILLER_17_497
*1194 FILLER_17_503
*1195 FILLER_17_505
*1196 FILLER_17_517
*1197 FILLER_17_52
*1198 FILLER_17_529
*1199 FILLER_17_541
*1200 FILLER_17_553
*1201 FILLER_17_559
*1202 FILLER_17_561
*1203 FILLER_17_573
*1204 FILLER_17_585
*1205 FILLER_17_597
*1206 FILLER_17_609
*1207 FILLER_17_615
*1208 FILLER_17_617
*1209 FILLER_17_7
*1210 FILLER_17_73
*1211 FILLER_17_86
*1212 FILLER_17_95
*1213 FILLER_18_115
*1214 FILLER_18_119
*1215 FILLER_18_136
*1216 FILLER_18_141
*1217 FILLER_18_151
*1218 FILLER_18_163
*1219 FILLER_18_173
*1220 FILLER_18_185
*1221 FILLER_18_193
*1222 FILLER_18_197
*1223 FILLER_18_209
*1224 FILLER_18_221
*1225 FILLER_18_23
*1226 FILLER_18_233
*1227 FILLER_18_245
*1228 FILLER_18_251
*1229 FILLER_18_253
*1230 FILLER_18_265
*1231 FILLER_18_27
*1232 FILLER_18_277
*1233 FILLER_18_289
*1234 FILLER_18_29
*1235 FILLER_18_301
*1236 FILLER_18_307
*1237 FILLER_18_309
*1238 FILLER_18_321
*1239 FILLER_18_333
*1240 FILLER_18_345
*1241 FILLER_18_357
*1242 FILLER_18_363
*1243 FILLER_18_365
*1244 FILLER_18_377
*1245 FILLER_18_389
*1246 FILLER_18_401
*1247 FILLER_18_41
*1248 FILLER_18_413
*1249 FILLER_18_419
*1250 FILLER_18_421
*1251 FILLER_18_433
*1252 FILLER_18_445
*1253 FILLER_18_457
*1254 FILLER_18_469
*1255 FILLER_18_475
*1256 FILLER_18_477
*1257 FILLER_18_489
*1258 FILLER_18_501
*1259 FILLER_18_513
*1260 FILLER_18_525
*1261 FILLER_18_53
*1262 FILLER_18_531
*1263 FILLER_18_533
*1264 FILLER_18_545
*1265 FILLER_18_557
*1266 FILLER_18_569
*1267 FILLER_18_581
*1268 FILLER_18_587
*1269 FILLER_18_589
*1270 FILLER_18_6
*1271 FILLER_18_601
*1272 FILLER_18_613
*1273 FILLER_18_65
*1274 FILLER_18_77
*1275 FILLER_18_83
*1276 FILLER_18_90
*1277 FILLER_19_103
*1278 FILLER_19_111
*1279 FILLER_19_119
*1280 FILLER_19_131
*1281 FILLER_19_14
*1282 FILLER_19_149
*1283 FILLER_19_161
*1284 FILLER_19_167
*1285 FILLER_19_185
*1286 FILLER_19_195
*1287 FILLER_19_207
*1288 FILLER_19_219
*1289 FILLER_19_223
*1290 FILLER_19_225
*1291 FILLER_19_237
*1292 FILLER_19_249
*1293 FILLER_19_26
*1294 FILLER_19_261
*1295 FILLER_19_273
*1296 FILLER_19_279
*1297 FILLER_19_281
*1298 FILLER_19_293
*1299 FILLER_19_305
*1300 FILLER_19_317
*1301 FILLER_19_329
*1302 FILLER_19_335
*1303 FILLER_19_337
*1304 FILLER_19_349
*1305 FILLER_19_361
*1306 FILLER_19_373
*1307 FILLER_19_385
*1308 FILLER_19_391
*1309 FILLER_19_393
*1310 FILLER_19_405
*1311 FILLER_19_417
*1312 FILLER_19_42
*1313 FILLER_19_429
*1314 FILLER_19_441
*1315 FILLER_19_447
*1316 FILLER_19_449
*1317 FILLER_19_461
*1318 FILLER_19_473
*1319 FILLER_19_485
*1320 FILLER_19_497
*1321 FILLER_19_503
*1322 FILLER_19_505
*1323 FILLER_19_517
*1324 FILLER_19_529
*1325 FILLER_19_54
*1326 FILLER_19_541
*1327 FILLER_19_553
*1328 FILLER_19_559
*1329 FILLER_19_561
*1330 FILLER_19_57
*1331 FILLER_19_573
*1332 FILLER_19_585
*1333 FILLER_19_597
*1334 FILLER_19_609
*1335 FILLER_19_615
*1336 FILLER_19_617
*1337 FILLER_19_67
*1338 FILLER_19_7
*1339 FILLER_19_79
*1340 FILLER_19_91
*1341 FILLER_1_104
*1342 FILLER_1_119
*1343 FILLER_1_126
*1344 FILLER_1_13
*1345 FILLER_1_130
*1346 FILLER_1_141
*1347 FILLER_1_151
*1348 FILLER_1_159
*1349 FILLER_1_164
*1350 FILLER_1_175
*1351 FILLER_1_185
*1352 FILLER_1_192
*1353 FILLER_1_202
*1354 FILLER_1_21
*1355 FILLER_1_211
*1356 FILLER_1_220
*1357 FILLER_1_228
*1358 FILLER_1_240
*1359 FILLER_1_244
*1360 FILLER_1_248
*1361 FILLER_1_260
*1362 FILLER_1_272
*1363 FILLER_1_281
*1364 FILLER_1_290
*1365 FILLER_1_302
*1366 FILLER_1_314
*1367 FILLER_1_32
*1368 FILLER_1_326
*1369 FILLER_1_334
*1370 FILLER_1_337
*1371 FILLER_1_343
*1372 FILLER_1_361
*1373 FILLER_1_369
*1374 FILLER_1_375
*1375 FILLER_1_387
*1376 FILLER_1_39
*1377 FILLER_1_391
*1378 FILLER_1_396
*1379 FILLER_1_408
*1380 FILLER_1_423
*1381 FILLER_1_435
*1382 FILLER_1_447
*1383 FILLER_1_449
*1384 FILLER_1_455
*1385 FILLER_1_467
*1386 FILLER_1_47
*1387 FILLER_1_471
*1388 FILLER_1_483
*1389 FILLER_1_495
*1390 FILLER_1_503
*1391 FILLER_1_508
*1392 FILLER_1_52
*1393 FILLER_1_520
*1394 FILLER_1_528
*1395 FILLER_1_534
*1396 FILLER_1_546
*1397 FILLER_1_558
*1398 FILLER_1_561
*1399 FILLER_1_566
*1400 FILLER_1_578
*1401 FILLER_1_582
*1402 FILLER_1_594
*1403 FILLER_1_602
*1404 FILLER_1_609
*1405 FILLER_1_615
*1406 FILLER_1_617
*1407 FILLER_1_621
*1408 FILLER_1_73
*1409 FILLER_1_80
*1410 FILLER_1_87
*1411 FILLER_1_94
*1412 FILLER_20_109
*1413 FILLER_20_11
*1414 FILLER_20_115
*1415 FILLER_20_127
*1416 FILLER_20_139
*1417 FILLER_20_151
*1418 FILLER_20_163
*1419 FILLER_20_172
*1420 FILLER_20_184
*1421 FILLER_20_197
*1422 FILLER_20_209
*1423 FILLER_20_21
*1424 FILLER_20_221
*1425 FILLER_20_233
*1426 FILLER_20_245
*1427 FILLER_20_251
*1428 FILLER_20_253
*1429 FILLER_20_265
*1430 FILLER_20_27
*1431 FILLER_20_277
*1432 FILLER_20_289
*1433 FILLER_20_29
*1434 FILLER_20_301
*1435 FILLER_20_307
*1436 FILLER_20_309
*1437 FILLER_20_321
*1438 FILLER_20_333
*1439 FILLER_20_345
*1440 FILLER_20_35
*1441 FILLER_20_357
*1442 FILLER_20_363
*1443 FILLER_20_365
*1444 FILLER_20_377
*1445 FILLER_20_389
*1446 FILLER_20_401
*1447 FILLER_20_413
*1448 FILLER_20_419
*1449 FILLER_20_421
*1450 FILLER_20_433
*1451 FILLER_20_445
*1452 FILLER_20_45
*1453 FILLER_20_457
*1454 FILLER_20_469
*1455 FILLER_20_475
*1456 FILLER_20_477
*1457 FILLER_20_489
*1458 FILLER_20_501
*1459 FILLER_20_513
*1460 FILLER_20_525
*1461 FILLER_20_531
*1462 FILLER_20_533
*1463 FILLER_20_545
*1464 FILLER_20_557
*1465 FILLER_20_569
*1466 FILLER_20_57
*1467 FILLER_20_581
*1468 FILLER_20_587
*1469 FILLER_20_589
*1470 FILLER_20_601
*1471 FILLER_20_613
*1472 FILLER_20_7
*1473 FILLER_20_79
*1474 FILLER_20_83
*1475 FILLER_20_85
*1476 FILLER_20_97
*1477 FILLER_21_101
*1478 FILLER_21_108
*1479 FILLER_21_123
*1480 FILLER_21_132
*1481 FILLER_21_142
*1482 FILLER_21_156
*1483 FILLER_21_169
*1484 FILLER_21_181
*1485 FILLER_21_201
*1486 FILLER_21_213
*1487 FILLER_21_221
*1488 FILLER_21_225
*1489 FILLER_21_237
*1490 FILLER_21_24
*1491 FILLER_21_249
*1492 FILLER_21_261
*1493 FILLER_21_273
*1494 FILLER_21_279
*1495 FILLER_21_281
*1496 FILLER_21_293
*1497 FILLER_21_3
*1498 FILLER_21_305
*1499 FILLER_21_317
*1500 FILLER_21_32
*1501 FILLER_21_329
*1502 FILLER_21_335
*1503 FILLER_21_337
*1504 FILLER_21_349
*1505 FILLER_21_361
*1506 FILLER_21_373
*1507 FILLER_21_385
*1508 FILLER_21_391
*1509 FILLER_21_393
*1510 FILLER_21_405
*1511 FILLER_21_417
*1512 FILLER_21_429
*1513 FILLER_21_441
*1514 FILLER_21_447
*1515 FILLER_21_449
*1516 FILLER_21_461
*1517 FILLER_21_473
*1518 FILLER_21_485
*1519 FILLER_21_497
*1520 FILLER_21_503
*1521 FILLER_21_505
*1522 FILLER_21_51
*1523 FILLER_21_517
*1524 FILLER_21_529
*1525 FILLER_21_541
*1526 FILLER_21_55
*1527 FILLER_21_553
*1528 FILLER_21_559
*1529 FILLER_21_561
*1530 FILLER_21_57
*1531 FILLER_21_573
*1532 FILLER_21_585
*1533 FILLER_21_597
*1534 FILLER_21_609
*1535 FILLER_21_61
*1536 FILLER_21_615
*1537 FILLER_21_617
*1538 FILLER_21_65
*1539 FILLER_21_7
*1540 FILLER_21_77
*1541 FILLER_21_89
*1542 FILLER_22_104
*1543 FILLER_22_114
*1544 FILLER_22_123
*1545 FILLER_22_135
*1546 FILLER_22_139
*1547 FILLER_22_15
*1548 FILLER_22_158
*1549 FILLER_22_166
*1550 FILLER_22_178
*1551 FILLER_22_188
*1552 FILLER_22_202
*1553 FILLER_22_214
*1554 FILLER_22_226
*1555 FILLER_22_238
*1556 FILLER_22_250
*1557 FILLER_22_253
*1558 FILLER_22_265
*1559 FILLER_22_27
*1560 FILLER_22_277
*1561 FILLER_22_289
*1562 FILLER_22_301
*1563 FILLER_22_307
*1564 FILLER_22_309
*1565 FILLER_22_321
*1566 FILLER_22_33
*1567 FILLER_22_333
*1568 FILLER_22_345
*1569 FILLER_22_357
*1570 FILLER_22_363
*1571 FILLER_22_365
*1572 FILLER_22_377
*1573 FILLER_22_389
*1574 FILLER_22_40
*1575 FILLER_22_401
*1576 FILLER_22_413
*1577 FILLER_22_419
*1578 FILLER_22_421
*1579 FILLER_22_433
*1580 FILLER_22_445
*1581 FILLER_22_457
*1582 FILLER_22_469
*1583 FILLER_22_475
*1584 FILLER_22_477
*1585 FILLER_22_489
*1586 FILLER_22_501
*1587 FILLER_22_513
*1588 FILLER_22_52
*1589 FILLER_22_525
*1590 FILLER_22_531
*1591 FILLER_22_533
*1592 FILLER_22_545
*1593 FILLER_22_557
*1594 FILLER_22_569
*1595 FILLER_22_581
*1596 FILLER_22_587
*1597 FILLER_22_589
*1598 FILLER_22_6
*1599 FILLER_22_601
*1600 FILLER_22_613
*1601 FILLER_22_64
*1602 FILLER_22_76
*1603 FILLER_22_85
*1604 FILLER_23_107
*1605 FILLER_23_111
*1606 FILLER_23_119
*1607 FILLER_23_131
*1608 FILLER_23_143
*1609 FILLER_23_157
*1610 FILLER_23_165
*1611 FILLER_23_169
*1612 FILLER_23_19
*1613 FILLER_23_191
*1614 FILLER_23_200
*1615 FILLER_23_212
*1616 FILLER_23_225
*1617 FILLER_23_237
*1618 FILLER_23_249
*1619 FILLER_23_261
*1620 FILLER_23_27
*1621 FILLER_23_273
*1622 FILLER_23_279
*1623 FILLER_23_281
*1624 FILLER_23_293
*1625 FILLER_23_305
*1626 FILLER_23_317
*1627 FILLER_23_329
*1628 FILLER_23_33
*1629 FILLER_23_335
*1630 FILLER_23_337
*1631 FILLER_23_349
*1632 FILLER_23_361
*1633 FILLER_23_373
*1634 FILLER_23_385
*1635 FILLER_23_391
*1636 FILLER_23_393
*1637 FILLER_23_405
*1638 FILLER_23_417
*1639 FILLER_23_429
*1640 FILLER_23_441
*1641 FILLER_23_447
*1642 FILLER_23_449
*1643 FILLER_23_45
*1644 FILLER_23_461
*1645 FILLER_23_473
*1646 FILLER_23_485
*1647 FILLER_23_497
*1648 FILLER_23_503
*1649 FILLER_23_505
*1650 FILLER_23_517
*1651 FILLER_23_529
*1652 FILLER_23_53
*1653 FILLER_23_541
*1654 FILLER_23_553
*1655 FILLER_23_559
*1656 FILLER_23_561
*1657 FILLER_23_57
*1658 FILLER_23_573
*1659 FILLER_23_585
*1660 FILLER_23_597
*1661 FILLER_23_609
*1662 FILLER_23_615
*1663 FILLER_23_617
*1664 FILLER_23_7
*1665 FILLER_23_75
*1666 FILLER_23_83
*1667 FILLER_23_95
*1668 FILLER_24_118
*1669 FILLER_24_130
*1670 FILLER_24_138
*1671 FILLER_24_141
*1672 FILLER_24_149
*1673 FILLER_24_156
*1674 FILLER_24_168
*1675 FILLER_24_180
*1676 FILLER_24_184
*1677 FILLER_24_190
*1678 FILLER_24_197