*SPEF "ieee 1481-1999"
*DESIGN "Flash"
*DATE "11:11:11 Fri 11 11, 1111"
*VENDOR "OpenRCX"
*PROGRAM "Parallel Extraction"
*VERSION "1.0"
*DESIGN_FLOW "NAME_SCOPE LOCAL" "PIN_CAP NONE"
*DIVIDER /
*DELIMITER :
*BUS_DELIMITER []
*T_UNIT 1 NS
*C_UNIT 1 PF
*R_UNIT 1 OHM
*L_UNIT 1 HENRY

*NAME_MAP
*1 net106
*2 flash_io0_read
*3 net153
*4 net107
*5 flash_io1_read
*6 net108
*7 net109
*8 net110
*9 net111
*10 net112
*11 net113
*12 net114
*13 net115
*14 net116
*15 net117
*16 net118
*17 net119
*18 sram_addr1[0]
*19 sram_addr1[1]
*20 sram_addr1[2]
*21 sram_addr1[3]
*22 sram_addr1[4]
*23 sram_addr1[5]
*24 sram_addr1[6]
*25 sram_addr1[7]
*26 sram_addr1[8]
*27 sram_clk0
*28 sram_clk1
*29 net154
*30 sram_csb1
*31 net120
*32 net130
*33 net131
*34 net132
*35 net133
*36 net134
*37 net135
*38 net136
*39 net137
*40 net138
*41 net139
*42 net121
*43 net140
*44 net141
*45 net142
*46 net143
*47 net144
*48 net145
*49 net146
*50 net147
*51 net148
*52 net149
*53 net122
*54 net150
*55 net151
*56 net123
*57 net124
*58 net125
*59 net126
*60 net127
*61 net128
*62 net129
*63 sram_dout0[0]
*64 sram_dout0[10]
*65 sram_dout0[11]
*66 sram_dout0[12]
*67 sram_dout0[13]
*68 sram_dout0[14]
*69 sram_dout0[15]
*70 sram_dout0[16]
*71 sram_dout0[17]
*72 sram_dout0[18]
*73 sram_dout0[19]
*74 sram_dout0[1]
*75 sram_dout0[20]
*76 sram_dout0[21]
*77 sram_dout0[22]
*78 sram_dout0[23]
*79 sram_dout0[24]
*80 sram_dout0[25]
*81 sram_dout0[26]
*82 sram_dout0[27]
*83 sram_dout0[28]
*84 sram_dout0[29]
*85 sram_dout0[2]
*86 sram_dout0[30]
*87 sram_dout0[31]
*88 sram_dout0[3]
*89 sram_dout0[4]
*90 sram_dout0[5]
*91 sram_dout0[6]
*92 sram_dout0[7]
*93 sram_dout0[8]
*94 sram_dout0[9]
*95 sram_dout1[0]
*96 sram_dout1[10]
*97 sram_dout1[11]
*98 sram_dout1[12]
*99 sram_dout1[13]
*100 sram_dout1[14]
*101 sram_dout1[15]
*102 sram_dout1[16]
*103 sram_dout1[17]
*104 sram_dout1[18]
*105 sram_dout1[19]
*106 sram_dout1[1]
*107 sram_dout1[20]
*108 sram_dout1[21]
*109 sram_dout1[22]
*110 sram_dout1[23]
*111 sram_dout1[24]
*112 sram_dout1[25]
*113 sram_dout1[26]
*114 sram_dout1[27]
*115 sram_dout1[28]
*116 sram_dout1[29]
*117 sram_dout1[2]
*118 sram_dout1[30]
*119 sram_dout1[31]
*120 sram_dout1[3]
*121 sram_dout1[4]
*122 sram_dout1[5]
*123 sram_dout1[6]
*124 sram_dout1[7]
*125 sram_dout1[8]
*126 sram_dout1[9]
*127 net155
*128 net156
*129 net157
*130 net158
*131 net159
*134 wb_ack_o
*135 wb_adr_i[0]
*136 wb_adr_i[10]
*137 wb_adr_i[11]
*138 wb_adr_i[12]
*139 wb_adr_i[13]
*140 wb_adr_i[14]
*141 wb_adr_i[15]
*142 wb_adr_i[16]
*143 wb_adr_i[17]
*144 wb_adr_i[18]
*145 wb_adr_i[19]
*146 wb_adr_i[1]
*147 wb_adr_i[20]
*148 wb_adr_i[21]
*149 wb_adr_i[22]
*150 wb_adr_i[23]
*151 wb_adr_i[2]
*152 wb_adr_i[3]
*153 wb_adr_i[4]
*154 wb_adr_i[5]
*155 wb_adr_i[6]
*156 wb_adr_i[7]
*157 wb_adr_i[8]
*158 wb_adr_i[9]
*159 wb_clk_i
*160 wb_cyc_i
*161 wb_data_i[0]
*162 wb_data_i[10]
*163 wb_data_i[11]
*164 wb_data_i[12]
*165 wb_data_i[13]
*166 wb_data_i[14]
*167 wb_data_i[15]
*168 wb_data_i[16]
*169 wb_data_i[17]
*170 wb_data_i[18]
*171 wb_data_i[19]
*172 wb_data_i[1]
*173 wb_data_i[20]
*174 wb_data_i[21]
*175 wb_data_i[22]
*176 wb_data_i[23]
*177 wb_data_i[24]
*178 wb_data_i[25]
*179 wb_data_i[26]
*180 wb_data_i[27]
*181 wb_data_i[28]
*182 wb_data_i[29]
*183 wb_data_i[2]
*184 wb_data_i[30]
*185 wb_data_i[31]
*186 wb_data_i[3]
*187 wb_data_i[4]
*188 wb_data_i[5]
*189 wb_data_i[6]
*190 wb_data_i[7]
*191 wb_data_i[8]
*192 wb_data_i[9]
*193 wb_data_o[0]
*194 wb_data_o[10]
*195 wb_data_o[11]
*196 wb_data_o[12]
*197 wb_data_o[13]
*198 wb_data_o[14]
*199 wb_data_o[15]
*200 wb_data_o[16]
*201 wb_data_o[17]
*202 wb_data_o[18]
*203 wb_data_o[19]
*204 wb_data_o[1]
*205 wb_data_o[20]
*206 wb_data_o[21]
*207 wb_data_o[22]
*208 wb_data_o[23]
*209 wb_data_o[24]
*210 wb_data_o[25]
*211 wb_data_o[26]
*212 wb_data_o[27]
*213 wb_data_o[28]
*214 wb_data_o[29]
*215 wb_data_o[2]
*216 wb_data_o[30]
*217 wb_data_o[31]
*218 wb_data_o[3]
*219 wb_data_o[4]
*220 wb_data_o[5]
*221 wb_data_o[6]
*222 wb_data_o[7]
*223 wb_data_o[8]
*224 wb_data_o[9]
*225 net152
*226 wb_rst_i
*227 wb_sel_i[0]
*228 wb_sel_i[1]
*229 wb_sel_i[2]
*230 wb_sel_i[3]
*231 wb_stall_o
*232 wb_stb_i
*233 wb_we_i
*234 _000_
*235 _001_
*236 _002_
*237 _003_
*238 _004_
*239 _005_
*240 _006_
*241 _007_
*242 _008_
*243 _009_
*244 _010_
*245 _011_
*246 _012_
*247 _013_
*248 _014_
*249 _015_
*250 _016_
*251 _017_
*252 _018_
*253 _019_
*254 _020_
*255 _021_
*256 _022_
*257 _023_
*258 _024_
*259 _025_
*260 _026_
*261 _027_
*262 _028_
*263 _029_
*264 _030_
*265 _031_
*266 _032_
*267 _033_
*268 _034_
*269 _035_
*270 _036_
*271 _037_
*272 _038_
*273 _039_
*274 _040_
*275 _041_
*276 _042_
*277 _043_
*278 _044_
*279 _045_
*280 _046_
*281 _047_
*282 _048_
*283 _049_
*284 _050_
*285 _051_
*286 _052_
*287 _053_
*288 _054_
*289 _055_
*290 _056_
*291 _057_
*292 _058_
*293 _059_
*294 _060_
*295 _061_
*296 _062_
*297 _063_
*298 _064_
*299 _065_
*300 _066_
*301 _067_
*302 _068_
*303 _069_
*304 _070_
*305 _071_
*306 _072_
*307 _073_
*308 _074_
*309 _075_
*310 _076_
*311 _077_
*312 _078_
*313 _079_
*314 _080_
*315 _081_
*316 _082_
*317 _083_
*318 _084_
*319 _085_
*320 _086_
*321 _087_
*322 _088_
*323 _089_
*324 _090_
*325 _091_
*326 _092_
*327 _093_
*328 _094_
*329 _095_
*330 _096_
*331 _097_
*332 _098_
*333 _099_
*334 _100_
*335 _101_
*336 _102_
*337 _103_
*338 _104_
*339 _105_
*340 _106_
*341 _107_
*342 _108_
*343 _109_
*344 _110_
*345 _111_
*346 _112_
*347 _113_
*348 _114_
*349 net1
*350 net10
*351 net100
*352 net101
*353 net102
*354 net103
*355 net104
*356 net105
*357 net11
*358 net12
*359 net13
*360 net14
*361 net15
*362 net16
*363 net17
*364 net18
*365 net19
*366 net2
*367 net20
*368 net21
*369 net22
*370 net23
*371 net24
*372 net25
*373 net26
*374 net27
*375 net28
*376 net29
*377 net3
*378 net30
*379 net31
*380 net32
*381 net33
*382 net34
*383 net35
*384 net36
*385 net37
*386 net38
*387 net39
*388 net4
*389 net40
*390 net41
*391 net42
*392 net43
*393 net44
*394 net45
*395 net46
*396 net47
*397 net48
*398 net49
*399 net5
*400 net50
*401 net51
*402 net52
*403 net53
*404 net54
*405 net55
*406 net56
*407 net57
*408 net58
*409 net59
*410 net6
*411 net60
*412 net61
*413 net62
*414 net63
*415 net64
*416 net65
*417 net66
*418 net67
*419 net68
*420 net69
*421 net7
*422 net70
*423 net71
*424 net72
*425 net73
*426 net74
*427 net75
*428 net76
*429 net77
*430 net78
*431 net79
*432 net8
*433 net80
*434 net81
*435 net82
*436 net83
*437 net84
*438 net85
*439 net86
*440 net87
*441 net88
*442 net89
*443 net9
*444 net90
*445 net91
*446 net92
*447 net93
*448 net94
*449 net95
*450 net96
*451 net97
*452 net98
*453 net99
*454 wbFlashInterface\.currentAddress\[10\]
*455 wbFlashInterface\.currentAddress\[11\]
*456 wbFlashInterface\.currentAddress\[12\]
*457 wbFlashInterface\.currentAddress\[13\]
*458 wbFlashInterface\.currentAddress\[14\]
*459 wbFlashInterface\.currentAddress\[15\]
*460 wbFlashInterface\.currentAddress\[16\]
*461 wbFlashInterface\.currentAddress\[17\]
*462 wbFlashInterface\.currentAddress\[18\]
*463 wbFlashInterface\.currentAddress\[19\]
*464 wbFlashInterface\.currentAddress\[20\]
*465 wbFlashInterface\.currentAddress\[21\]
*466 wbFlashInterface\.currentAddress\[22\]
*467 wbFlashInterface\.currentAddress\[23\]
*468 wbFlashInterface\.currentAddress\[2\]
*469 wbFlashInterface\.currentAddress\[3\]
*470 wbFlashInterface\.currentAddress\[4\]
*471 wbFlashInterface\.currentAddress\[5\]
*472 wbFlashInterface\.currentAddress\[6\]
*473 wbFlashInterface\.currentAddress\[7\]
*474 wbFlashInterface\.currentAddress\[8\]
*475 wbFlashInterface\.currentAddress\[9\]
*476 wbFlashInterface\.state\[0\]
*477 wbFlashInterface\.state\[1\]
*478 FILLER_0_1003
*479 FILLER_0_1007
*480 FILLER_0_1012
*481 FILLER_0_1019
*482 FILLER_0_1027
*483 FILLER_0_1032
*484 FILLER_0_104
*485 FILLER_0_1040
*486 FILLER_0_1052
*487 FILLER_0_1059
*488 FILLER_0_1063
*489 FILLER_0_1068
*490 FILLER_0_1080
*491 FILLER_0_1088
*492 FILLER_0_1097
*493 FILLER_0_1110
*494 FILLER_0_1114
*495 FILLER_0_1121
*496 FILLER_0_1127
*497 FILLER_0_1133
*498 FILLER_0_1139
*499 FILLER_0_1144
*500 FILLER_0_1149
*501 FILLER_0_1153
*502 FILLER_0_116
*503 FILLER_0_1160
*504 FILLER_0_1168
*505 FILLER_0_1181
*506 FILLER_0_1189
*507 FILLER_0_1201
*508 FILLER_0_1205
*509 FILLER_0_1213
*510 FILLER_0_1221
*511 FILLER_0_1229
*512 FILLER_0_1233
*513 FILLER_0_124
*514 FILLER_0_1241
*515 FILLER_0_1249
*516 FILLER_0_1257
*517 FILLER_0_1265
*518 FILLER_0_1273
*519 FILLER_0_13
*520 FILLER_0_136
*521 FILLER_0_141
*522 FILLER_0_147
*523 FILLER_0_157
*524 FILLER_0_165
*525 FILLER_0_17
*526 FILLER_0_172
*527 FILLER_0_184
*528 FILLER_0_188
*529 FILLER_0_192
*530 FILLER_0_197
*531 FILLER_0_201
*532 FILLER_0_211
*533 FILLER_0_215
*534 FILLER_0_219
*535 FILLER_0_223
*536 FILLER_0_225
*537 FILLER_0_23
*538 FILLER_0_232
*539 FILLER_0_239
*540 FILLER_0_246
*541 FILLER_0_256
*542 FILLER_0_264
*543 FILLER_0_268
*544 FILLER_0_27
*545 FILLER_0_272
*546 FILLER_0_281
*547 FILLER_0_290
*548 FILLER_0_297
*549 FILLER_0_304
*550 FILLER_0_313
*551 FILLER_0_32
*552 FILLER_0_320
*553 FILLER_0_332
*554 FILLER_0_337
*555 FILLER_0_345
*556 FILLER_0_349
*557 FILLER_0_354
*558 FILLER_0_36
*559 FILLER_0_362
*560 FILLER_0_370
*561 FILLER_0_388
*562 FILLER_0_393
*563 FILLER_0_397
*564 FILLER_0_40
*565 FILLER_0_402
*566 FILLER_0_410
*567 FILLER_0_418
*568 FILLER_0_421
*569 FILLER_0_429
*570 FILLER_0_435
*571 FILLER_0_441
*572 FILLER_0_447
*573 FILLER_0_454
*574 FILLER_0_472
*575 FILLER_0_477
*576 FILLER_0_484
*577 FILLER_0_50
*578 FILLER_0_500
*579 FILLER_0_505
*580 FILLER_0_514
*581 FILLER_0_528
*582 FILLER_0_536
*583 FILLER_0_547
*584 FILLER_0_556
*585 FILLER_0_561
*586 FILLER_0_571
*587 FILLER_0_579
*588 FILLER_0_584
*589 FILLER_0_589
*590 FILLER_0_597
*591 FILLER_0_60
*592 FILLER_0_606
*593 FILLER_0_614
*594 FILLER_0_620
*595 FILLER_0_631
*596 FILLER_0_635
*597 FILLER_0_639
*598 FILLER_0_643
*599 FILLER_0_650
*600 FILLER_0_657
*601 FILLER_0_66
*602 FILLER_0_661
*603 FILLER_0_665
*604 FILLER_0_671
*605 FILLER_0_678
*606 FILLER_0_687
*607 FILLER_0_694
*608 FILLER_0_7
*609 FILLER_0_701
*610 FILLER_0_709
*611 FILLER_0_716
*612 FILLER_0_72
*613 FILLER_0_724
*614 FILLER_0_733
*615 FILLER_0_740
*616 FILLER_0_750
*617 FILLER_0_757
*618 FILLER_0_76
*619 FILLER_0_768
*620 FILLER_0_777
*621 FILLER_0_783
*622 FILLER_0_788
*623 FILLER_0_794
*624 FILLER_0_80
*625 FILLER_0_800
*626 FILLER_0_808
*627 FILLER_0_813
*628 FILLER_0_817
*629 FILLER_0_823
*630 FILLER_0_833
*631 FILLER_0_839
*632 FILLER_0_844
*633 FILLER_0_85
*634 FILLER_0_852
*635 FILLER_0_861
*636 FILLER_0_867
*637 FILLER_0_872
*638 FILLER_0_876
*639 FILLER_0_880
*640 FILLER_0_888
*641 FILLER_0_892
*642 FILLER_0_897
*643 FILLER_0_905
*644 FILLER_0_914
*645 FILLER_0_922
*646 FILLER_0_935
*647 FILLER_0_94
*648 FILLER_0_942
*649 FILLER_0_950
*650 FILLER_0_963
*651 FILLER_0_971
*652 FILLER_0_979
*653 FILLER_0_984
*654 FILLER_0_991
*655 FILLER_10_1005
*656 FILLER_10_1017
*657 FILLER_10_1029
*658 FILLER_10_1035
*659 FILLER_10_1037
*660 FILLER_10_1049
*661 FILLER_10_1061
*662 FILLER_10_1073
*663 FILLER_10_1085
*664 FILLER_10_109
*665 FILLER_10_1091
*666 FILLER_10_1093
*667 FILLER_10_1105
*668 FILLER_10_1117
*669 FILLER_10_1129
*670 FILLER_10_1141
*671 FILLER_10_1147
*672 FILLER_10_1149
*673 FILLER_10_1161
*674 FILLER_10_1173
*675 FILLER_10_1185
*676 FILLER_10_1197
*677 FILLER_10_1203
*678 FILLER_10_1205
*679 FILLER_10_121
*680 FILLER_10_1217
*681 FILLER_10_1229
*682 FILLER_10_1241
*683 FILLER_10_1253
*684 FILLER_10_1259
*685 FILLER_10_1261
*686 FILLER_10_1273
*687 FILLER_10_133
*688 FILLER_10_139
*689 FILLER_10_141
*690 FILLER_10_15
*691 FILLER_10_153
*692 FILLER_10_165
*693 FILLER_10_177
*694 FILLER_10_189
*695 FILLER_10_195
*696 FILLER_10_197
*697 FILLER_10_209
*698 FILLER_10_221
*699 FILLER_10_233
*700 FILLER_10_245
*701 FILLER_10_251
*702 FILLER_10_253
*703 FILLER_10_265
*704 FILLER_10_27
*705 FILLER_10_277
*706 FILLER_10_289
*707 FILLER_10_29
*708 FILLER_10_3
*709 FILLER_10_301
*710 FILLER_10_307
*711 FILLER_10_309
*712 FILLER_10_321
*713 FILLER_10_333
*714 FILLER_10_345
*715 FILLER_10_357
*716 FILLER_10_363
*717 FILLER_10_365
*718 FILLER_10_375
*719 FILLER_10_387
*720 FILLER_10_399
*721 FILLER_10_41
*722 FILLER_10_411
*723 FILLER_10_419
*724 FILLER_10_421
*725 FILLER_10_433
*726 FILLER_10_445
*727 FILLER_10_457
*728 FILLER_10_469
*729 FILLER_10_475
*730 FILLER_10_477
*731 FILLER_10_489
*732 FILLER_10_501
*733 FILLER_10_513
*734 FILLER_10_525
*735 FILLER_10_53
*736 FILLER_10_531
*737 FILLER_10_533
*738 FILLER_10_545
*739 FILLER_10_557
*740 FILLER_10_569
*741 FILLER_10_581
*742 FILLER_10_587
*743 FILLER_10_589
*744 FILLER_10_601
*745 FILLER_10_613
*746 FILLER_10_625
*747 FILLER_10_637
*748 FILLER_10_643
*749 FILLER_10_645
*750 FILLER_10_65
*751 FILLER_10_657
*752 FILLER_10_669
*753 FILLER_10_681
*754 FILLER_10_693
*755 FILLER_10_699
*756 FILLER_10_701
*757 FILLER_10_713
*758 FILLER_10_725
*759 FILLER_10_737
*760 FILLER_10_749
*761 FILLER_10_755
*762 FILLER_10_757
*763 FILLER_10_769
*764 FILLER_10_77
*765 FILLER_10_781
*766 FILLER_10_793
*767 FILLER_10_805
*768 FILLER_10_811
*769 FILLER_10_813
*770 FILLER_10_825
*771 FILLER_10_83
*772 FILLER_10_837
*773 FILLER_10_849
*774 FILLER_10_85
*775 FILLER_10_861
*776 FILLER_10_867
*777 FILLER_10_869
*778 FILLER_10_881
*779 FILLER_10_893
*780 FILLER_10_905
*781 FILLER_10_917
*782 FILLER_10_923
*783 FILLER_10_925
*784 FILLER_10_937
*785 FILLER_10_949
*786 FILLER_10_961
*787 FILLER_10_97
*788 FILLER_10_973
*789 FILLER_10_979
*790 FILLER_10_981
*791 FILLER_10_993
*792 FILLER_11_1001
*793 FILLER_11_1007
*794 FILLER_11_1009
*795 FILLER_11_1021
*796 FILLER_11_1033
*797 FILLER_11_1045
*798 FILLER_11_105
*799 FILLER_11_1057
*800 FILLER_11_1063
*801 FILLER_11_1065
*802 FILLER_11_1077
*803 FILLER_11_1089
*804 FILLER_11_1101
*805 FILLER_11_111
*806 FILLER_11_1113
*807 FILLER_11_1119
*808 FILLER_11_1121
*809 FILLER_11_113
*810 FILLER_11_1133
*811 FILLER_11_1145
*812 FILLER_11_1157
*813 FILLER_11_1169
*814 FILLER_11_1175
*815 FILLER_11_1177
*816 FILLER_11_1189
*817 FILLER_11_1201
*818 FILLER_11_1213
*819 FILLER_11_1225
*820 FILLER_11_1231
*821 FILLER_11_1233
*822 FILLER_11_1245
*823 FILLER_11_125
*824 FILLER_11_1257
*825 FILLER_11_1269
*826 FILLER_11_137
*827 FILLER_11_149
*828 FILLER_11_15
*829 FILLER_11_161
*830 FILLER_11_167
*831 FILLER_11_169
*832 FILLER_11_181
*833 FILLER_11_193
*834 FILLER_11_205
*835 FILLER_11_217
*836 FILLER_11_223
*837 FILLER_11_225
*838 FILLER_11_237
*839 FILLER_11_249
*840 FILLER_11_261
*841 FILLER_11_27
*842 FILLER_11_273
*843 FILLER_11_279
*844 FILLER_11_281
*845 FILLER_11_293
*846 FILLER_11_3
*847 FILLER_11_305
*848 FILLER_11_317
*849 FILLER_11_329
*850 FILLER_11_335
*851 FILLER_11_337
*852 FILLER_11_349
*853 FILLER_11_361
*854 FILLER_11_373
*855 FILLER_11_385
*856 FILLER_11_39
*857 FILLER_11_391
*858 FILLER_11_393
*859 FILLER_11_405
*860 FILLER_11_417
*861 FILLER_11_429
*862 FILLER_11_441
*863 FILLER_11_447
*864 FILLER_11_449
*865 FILLER_11_461
*866 FILLER_11_473
*867 FILLER_11_485
*868 FILLER_11_497
*869 FILLER_11_503
*870 FILLER_11_505
*871 FILLER_11_51
*872 FILLER_11_517
*873 FILLER_11_529
*874 FILLER_11_541
*875 FILLER_11_55
*876 FILLER_11_553
*877 FILLER_11_559
*878 FILLER_11_561
*879 FILLER_11_57
*880 FILLER_11_573
*881 FILLER_11_585
*882 FILLER_11_597
*883 FILLER_11_609
*884 FILLER_11_615
*885 FILLER_11_617
*886 FILLER_11_629
*887 FILLER_11_641
*888 FILLER_11_653
*889 FILLER_11_665
*890 FILLER_11_671
*891 FILLER_11_673
*892 FILLER_11_685
*893 FILLER_11_69
*894 FILLER_11_697
*895 FILLER_11_709
*896 FILLER_11_721
*897 FILLER_11_727
*898 FILLER_11_729
*899 FILLER_11_741
*900 FILLER_11_753
*901 FILLER_11_765
*902 FILLER_11_777
*903 FILLER_11_783
*904 FILLER_11_785
*905 FILLER_11_797
*906 FILLER_11_809
*907 FILLER_11_81
*908 FILLER_11_821
*909 FILLER_11_833
*910 FILLER_11_839
*911 FILLER_11_841
*912 FILLER_11_853
*913 FILLER_11_865
*914 FILLER_11_877
*915 FILLER_11_889
*916 FILLER_11_895
*917 FILLER_11_897
*918 FILLER_11_909
*919 FILLER_11_921
*920 FILLER_11_93
*921 FILLER_11_933
*922 FILLER_11_945
*923 FILLER_11_951
*924 FILLER_11_953
*925 FILLER_11_965
*926 FILLER_11_977
*927 FILLER_11_989
*928 FILLER_12_1005
*929 FILLER_12_1017
*930 FILLER_12_1029
*931 FILLER_12_1035
*932 FILLER_12_1037
*933 FILLER_12_1049
*934 FILLER_12_1061
*935 FILLER_12_1073
*936 FILLER_12_1085
*937 FILLER_12_109
*938 FILLER_12_1091
*939 FILLER_12_1093
*940 FILLER_12_11
*941 FILLER_12_1105
*942 FILLER_12_1117
*943 FILLER_12_1129
*944 FILLER_12_1141
*945 FILLER_12_1147
*946 FILLER_12_1149
*947 FILLER_12_1161
*948 FILLER_12_1173
*949 FILLER_12_1185
*950 FILLER_12_1197
*951 FILLER_12_1203
*952 FILLER_12_1205
*953 FILLER_12_121
*954 FILLER_12_1217
*955 FILLER_12_1229
*956 FILLER_12_1241
*957 FILLER_12_1253
*958 FILLER_12_1259
*959 FILLER_12_1261
*960 FILLER_12_1267
*961 FILLER_12_1273
*962 FILLER_12_133
*963 FILLER_12_139
*964 FILLER_12_141
*965 FILLER_12_153
*966 FILLER_12_165
*967 FILLER_12_177
*968 FILLER_12_189
*969 FILLER_12_195
*970 FILLER_12_197
*971 FILLER_12_209
*972 FILLER_12_221
*973 FILLER_12_23
*974 FILLER_12_233
*975 FILLER_12_245
*976 FILLER_12_251
*977 FILLER_12_253
*978 FILLER_12_265
*979 FILLER_12_27
*980 FILLER_12_277
*981 FILLER_12_289
*982 FILLER_12_29
*983 FILLER_12_301
*984 FILLER_12_307
*985 FILLER_12_309
*986 FILLER_12_321
*987 FILLER_12_333
*988 FILLER_12_345
*989 FILLER_12_357
*990 FILLER_12_363
*991 FILLER_12_365
*992 FILLER_12_377
*993 FILLER_12_389
*994 FILLER_12_401
*995 FILLER_12_41
*996 FILLER_12_413
*997 FILLER_12_419
*998 FILLER_12_421
*999 FILLER_12_433
*1000 FILLER_12_445
*1001 FILLER_12_457
*1002 FILLER_12_469
*1003 FILLER_12_475
*1004 FILLER_12_477
*1005 FILLER_12_489
*1006 FILLER_12_501
*1007 FILLER_12_513
*1008 FILLER_12_525
*1009 FILLER_12_53
*1010 FILLER_12_531
*1011 FILLER_12_533
*1012 FILLER_12_545
*1013 FILLER_12_557
*1014 FILLER_12_569
*1015 FILLER_12_581
*1016 FILLER_12_587
*1017 FILLER_12_589
*1018 FILLER_12_601
*1019 FILLER_12_613
*1020 FILLER_12_625
*1021 FILLER_12_637
*1022 FILLER_12_643
*1023 FILLER_12_645
*1024 FILLER_12_65
*1025 FILLER_12_657
*1026 FILLER_12_669
*1027 FILLER_12_681
*1028 FILLER_12_693
*1029 FILLER_12_699
*1030 FILLER_12_7
*1031 FILLER_12_701
*1032 FILLER_12_713
*1033 FILLER_12_725
*1034 FILLER_12_737
*1035 FILLER_12_749
*1036 FILLER_12_755
*1037 FILLER_12_757
*1038 FILLER_12_769
*1039 FILLER_12_77
*1040 FILLER_12_781
*1041 FILLER_12_793
*1042 FILLER_12_805
*1043 FILLER_12_811
*1044 FILLER_12_813
*1045 FILLER_12_825
*1046 FILLER_12_83
*1047 FILLER_12_837
*1048 FILLER_12_849
*1049 FILLER_12_85
*1050 FILLER_12_861
*1051 FILLER_12_867
*1052 FILLER_12_869
*1053 FILLER_12_881
*1054 FILLER_12_893
*1055 FILLER_12_905
*1056 FILLER_12_917
*1057 FILLER_12_923
*1058 FILLER_12_925
*1059 FILLER_12_937
*1060 FILLER_12_949
*1061 FILLER_12_961
*1062 FILLER_12_97
*1063 FILLER_12_973
*1064 FILLER_12_979
*1065 FILLER_12_981
*1066 FILLER_12_993
*1067 FILLER_13_1001
*1068 FILLER_13_1007
*1069 FILLER_13_1009
*1070 FILLER_13_1021
*1071 FILLER_13_1033
*1072 FILLER_13_1045
*1073 FILLER_13_105
*1074 FILLER_13_1057
*1075 FILLER_13_1063
*1076 FILLER_13_1065
*1077 FILLER_13_1077
*1078 FILLER_13_1089
*1079 FILLER_13_1101
*1080 FILLER_13_111
*1081 FILLER_13_1113
*1082 FILLER_13_1119
*1083 FILLER_13_1121
*1084 FILLER_13_113
*1085 FILLER_13_1133
*1086 FILLER_13_1145
*1087 FILLER_13_1157
*1088 FILLER_13_1169
*1089 FILLER_13_1175
*1090 FILLER_13_1177
*1091 FILLER_13_1189
*1092 FILLER_13_1201
*1093 FILLER_13_1213
*1094 FILLER_13_1225
*1095 FILLER_13_1231
*1096 FILLER_13_1233
*1097 FILLER_13_1245
*1098 FILLER_13_125
*1099 FILLER_13_1257
*1100 FILLER_13_1269
*1101 FILLER_13_137
*1102 FILLER_13_149
*1103 FILLER_13_15
*1104 FILLER_13_161
*1105 FILLER_13_167
*1106 FILLER_13_169
*1107 FILLER_13_181
*1108 FILLER_13_193
*1109 FILLER_13_205
*1110 FILLER_13_217
*1111 FILLER_13_223
*1112 FILLER_13_225
*1113 FILLER_13_237
*1114 FILLER_13_249
*1115 FILLER_13_261
*1116 FILLER_13_27
*1117 FILLER_13_273
*1118 FILLER_13_279
*1119 FILLER_13_281
*1120 FILLER_13_293
*1121 FILLER_13_3
*1122 FILLER_13_305
*1123 FILLER_13_317
*1124 FILLER_13_329
*1125 FILLER_13_335
*1126 FILLER_13_337
*1127 FILLER_13_349
*1128 FILLER_13_361
*1129 FILLER_13_373
*1130 FILLER_13_385
*1131 FILLER_13_39
*1132 FILLER_13_391
*1133 FILLER_13_393
*1134 FILLER_13_405
*1135 FILLER_13_417
*1136 FILLER_13_429
*1137 FILLER_13_441
*1138 FILLER_13_447
*1139 FILLER_13_449
*1140 FILLER_13_461
*1141 FILLER_13_473
*1142 FILLER_13_485
*1143 FILLER_13_497
*1144 FILLER_13_503
*1145 FILLER_13_505
*1146 FILLER_13_51
*1147 FILLER_13_517
*1148 FILLER_13_529
*1149 FILLER_13_541
*1150 FILLER_13_55
*1151 FILLER_13_553
*1152 FILLER_13_559
*1153 FILLER_13_561
*1154 FILLER_13_57
*1155 FILLER_13_573
*1156 FILLER_13_585
*1157 FILLER_13_597
*1158 FILLER_13_609
*1159 FILLER_13_615
*1160 FILLER_13_617
*1161 FILLER_13_629
*1162 FILLER_13_641
*1163 FILLER_13_653
*1164 FILLER_13_665
*1165 FILLER_13_671
*1166 FILLER_13_673
*1167 FILLER_13_685
*1168 FILLER_13_69
*1169 FILLER_13_697
*1170 FILLER_13_709
*1171 FILLER_13_721
*1172 FILLER_13_727
*1173 FILLER_13_729
*1174 FILLER_13_741
*1175 FILLER_13_753
*1176 FILLER_13_765
*1177 FILLER_13_777
*1178 FILLER_13_783
*1179 FILLER_13_785
*1180 FILLER_13_797
*1181 FILLER_13_809
*1182 FILLER_13_81
*1183 FILLER_13_821
*1184 FILLER_13_833
*1185 FILLER_13_839
*1186 FILLER_13_841
*1187 FILLER_13_853
*1188 FILLER_13_865
*1189 FILLER_13_877
*1190 FILLER_13_889
*1191 FILLER_13_895
*1192 FILLER_13_897
*1193 FILLER_13_909
*1194 FILLER_13_921
*1195 FILLER_13_93
*1196 FILLER_13_933
*1197 FILLER_13_945
*1198 FILLER_13_951
*1199 FILLER_13_953
*1200 FILLER_13_965
*1201 FILLER_13_977
*1202 FILLER_13_989
*1203 FILLER_14_1005
*1204 FILLER_14_1017
*1205 FILLER_14_1029
*1206 FILLER_14_1035
*1207 FILLER_14_1037
*1208 FILLER_14_1049
*1209 FILLER_14_1061
*1210 FILLER_14_1073
*1211 FILLER_14_1085
*1212 FILLER_14_109
*1213 FILLER_14_1091
*1214 FILLER_14_1093
*1215 FILLER_14_1105
*1216 FILLER_14_1117
*1217 FILLER_14_1129
*1218 FILLER_14_1141
*1219 FILLER_14_1147
*1220 FILLER_14_1149
*1221 FILLER_14_1161
*1222 FILLER_14_1173
*1223 FILLER_14_1185
*1224 FILLER_14_1197
*1225 FILLER_14_1203
*1226 FILLER_14_1205
*1227 FILLER_14_121
*1228 FILLER_14_1217
*1229 FILLER_14_1229
*1230 FILLER_14_1241
*1231 FILLER_14_1253
*1232 FILLER_14_1259
*1233 FILLER_14_1261
*1234 FILLER_14_1273
*1235 FILLER_14_133
*1236 FILLER_14_139
*1237 FILLER_14_141
*1238 FILLER_14_15
*1239 FILLER_14_153
*1240 FILLER_14_165
*1241 FILLER_14_177
*1242 FILLER_14_189
*1243 FILLER_14_195
*1244 FILLER_14_197
*1245 FILLER_14_209
*1246 FILLER_14_221
*1247 FILLER_14_233
*1248 FILLER_14_245
*1249 FILLER_14_251
*1250 FILLER_14_253
*1251 FILLER_14_265
*1252 FILLER_14_27
*1253 FILLER_14_277
*1254 FILLER_14_289
*1255 FILLER_14_29
*1256 FILLER_14_3
*1257 FILLER_14_301
*1258 FILLER_14_307
*1259 FILLER_14_309
*1260 FILLER_14_321
*1261 FILLER_14_333
*1262 FILLER_14_345
*1263 FILLER_14_357
*1264 FILLER_14_363
*1265 FILLER_14_365
*1266 FILLER_14_377
*1267 FILLER_14_389
*1268 FILLER_14_401
*1269 FILLER_14_41
*1270 FILLER_14_413
*1271 FILLER_14_419
*1272 FILLER_14_421
*1273 FILLER_14_433
*1274 FILLER_14_445
*1275 FILLER_14_457
*1276 FILLER_14_469
*1277 FILLER_14_475
*1278 FILLER_14_477
*1279 FILLER_14_489
*1280 FILLER_14_501
*1281 FILLER_14_513
*1282 FILLER_14_525
*1283 FILLER_14_53
*1284 FILLER_14_531
*1285 FILLER_14_533
*1286 FILLER_14_545
*1287 FILLER_14_557
*1288 FILLER_14_569
*1289 FILLER_14_581
*1290 FILLER_14_587
*1291 FILLER_14_589
*1292 FILLER_14_601
*1293 FILLER_14_613
*1294 FILLER_14_625
*1295 FILLER_14_637
*1296 FILLER_14_643
*1297 FILLER_14_645
*1298 FILLER_14_65
*1299 FILLER_14_657
*1300 FILLER_14_669
*1301 FILLER_14_681
*1302 FILLER_14_693
*1303 FILLER_14_699
*1304 FILLER_14_701
*1305 FILLER_14_713
*1306 FILLER_14_725
*1307 FILLER_14_737
*1308 FILLER_14_749
*1309 FILLER_14_755
*1310 FILLER_14_757
*1311 FILLER_14_769
*1312 FILLER_14_77
*1313 FILLER_14_781
*1314 FILLER_14_793
*1315 FILLER_14_805
*1316 FILLER_14_811
*1317 FILLER_14_813
*1318 FILLER_14_825
*1319 FILLER_14_83
*1320 FILLER_14_837
*1321 FILLER_14_849
*1322 FILLER_14_85
*1323 FILLER_14_861
*1324 FILLER_14_867
*1325 FILLER_14_869
*1326 FILLER_14_881
*1327 FILLER_14_893
*1328 FILLER_14_905
*1329 FILLER_14_917
*1330 FILLER_14_923
*1331 FILLER_14_925
*1332 FILLER_14_937
*1333 FILLER_14_949
*1334 FILLER_14_961
*1335 FILLER_14_97
*1336 FILLER_14_973
*1337 FILLER_14_979
*1338 FILLER_14_981
*1339 FILLER_14_993
*1340 FILLER_15_1001
*1341 FILLER_15_1007
*1342 FILLER_15_1009
*1343 FILLER_15_1021
*1344 FILLER_15_1033
*1345 FILLER_15_1045
*1346 FILLER_15_105
*1347 FILLER_15_1057
*1348 FILLER_15_1063
*1349 FILLER_15_1065
*1350 FILLER_15_1077
*1351 FILLER_15_1089
*1352 FILLER_15_1101
*1353 FILLER_15_111
*1354 FILLER_15_1113
*1355 FILLER_15_1119
*1356 FILLER_15_1121
*1357 FILLER_15_113
*1358 FILLER_15_1133
*1359 FILLER_15_1145
*1360 FILLER_15_1157
*1361 FILLER_15_1169
*1362 FILLER_15_1175
*1363 FILLER_15_1177
*1364 FILLER_15_1189
*1365 FILLER_15_1201
*1366 FILLER_15_1213
*1367 FILLER_15_1225
*1368 FILLER_15_1231
*1369 FILLER_15_1233
*1370 FILLER_15_1245
*1371 FILLER_15_125
*1372 FILLER_15_1257
*1373 FILLER_15_1269
*1374 FILLER_15_137
*1375 FILLER_15_149
*1376 FILLER_15_161
*1377 FILLER_15_167
*1378 FILLER_15_169
*1379 FILLER_15_181
*1380 FILLER_15_19
*1381 FILLER_15_193
*1382 FILLER_15_205
*1383 FILLER_15_217
*1384 FILLER_15_223
*1385 FILLER_15_225
*1386 FILLER_15_237
*1387 FILLER_15_249
*1388 FILLER_15_261
*1389 FILLER_15_273
*1390 FILLER_15_279
*1391 FILLER_15_281
*1392 FILLER_15_293
*1393 FILLER_15_305
*1394 FILLER_15_31
*1395 FILLER_15_317
*1396 FILLER_15_329
*1397 FILLER_15_335
*1398 FILLER_15_337
*1399 FILLER_15_349
*1400 FILLER_15_361
*1401 FILLER_15_373
*1402 FILLER_15_385
*1403 FILLER_15_391
*1404 FILLER_15_393
*1405 FILLER_15_405
*1406 FILLER_15_417
*1407 FILLER_15_429
*1408 FILLER_15_43
*1409 FILLER_15_441
*1410 FILLER_15_447
*1411 FILLER_15_449
*1412 FILLER_15_461
*1413 FILLER_15_473
*1414 FILLER_15_485
*1415 FILLER_15_497
*1416 FILLER_15_503
*1417 FILLER_15_505
*1418 FILLER_15_517
*1419 FILLER_15_529
*1420 FILLER_15_541
*1421 FILLER_15_55
*1422 FILLER_15_553
*1423 FILLER_15_559
*1424 FILLER_15_561
*1425 FILLER_15_57
*1426 FILLER_15_573
*1427 FILLER_15_585
*1428 FILLER_15_597
*1429 FILLER_15_609
*1430 FILLER_15_615
*1431 FILLER_15_617
*1432 FILLER_15_629
*1433 FILLER_15_641
*1434 FILLER_15_653
*1435 FILLER_15_665
*1436 FILLER_15_671
*1437 FILLER_15_673
*1438 FILLER_15_685
*1439 FILLER_15_69
*1440 FILLER_15_697
*1441 FILLER_15_7
*1442 FILLER_15_709
*1443 FILLER_15_721
*1444 FILLER_15_727
*1445 FILLER_15_729
*1446 FILLER_15_741
*1447 FILLER_15_753
*1448 FILLER_15_765
*1449 FILLER_15_777
*1450 FILLER_15_783
*1451 FILLER_15_785
*1452 FILLER_15_797
*1453 FILLER_15_809
*1454 FILLER_15_81
*1455 FILLER_15_821
*1456 FILLER_15_833
*1457 FILLER_15_839
*1458 FILLER_15_841
*1459 FILLER_15_853
*1460 FILLER_15_865
*1461 FILLER_15_877
*1462 FILLER_15_889
*1463 FILLER_15_895
*1464 FILLER_15_897
*1465 FILLER_15_909
*1466 FILLER_15_921
*1467 FILLER_15_93
*1468 FILLER_15_933
*1469 FILLER_15_945
*1470 FILLER_15_951
*1471 FILLER_15_953
*1472 FILLER_15_965
*1473 FILLER_15_977
*1474 FILLER_15_989
*1475 FILLER_16_1005
*1476 FILLER_16_1017
*1477 FILLER_16_1029
*1478 FILLER_16_1035
*1479 FILLER_16_1037
*1480 FILLER_16_1049
*1481 FILLER_16_1061
*1482 FILLER_16_1073
*1483 FILLER_16_1085
*1484 FILLER_16_109
*1485 FILLER_16_1091
*1486 FILLER_16_1093
*1487 FILLER_16_1105
*1488 FILLER_16_1117
*1489 FILLER_16_1129
*1490 FILLER_16_1141
*1491 FILLER_16_1147
*1492 FILLER_16_1149
*1493 FILLER_16_1161
*1494 FILLER_16_1173
*1495 FILLER_16_1185
*1496 FILLER_16_1197
*1497 FILLER_16_1203
*1498 FILLER_16_1205
*1499 FILLER_16_121
*1500 FILLER_16_1217
*1501 FILLER_16_1229
*1502 FILLER_16_1241
*1503 FILLER_16_1253
*1504 FILLER_16_1259
*1505 FILLER_16_1261
*1506 FILLER_16_1273
*1507 FILLER_16_133
*1508 FILLER_16_139
*1509 FILLER_16_141
*1510 FILLER_16_15
*1511 FILLER_16_153
*1512 FILLER_16_165
*1513 FILLER_16_177
*1514 FILLER_16_189
*1515 FILLER_16_195
*1516 FILLER_16_197
*1517 FILLER_16_209
*1518 FILLER_16_221
*1519 FILLER_16_233
*1520 FILLER_16_245
*1521 FILLER_16_251
*1522 FILLER_16_253
*1523 FILLER_16_265
*1524 FILLER_16_27
*1525 FILLER_16_277
*1526 FILLER_16_289
*1527 FILLER_16_29
*1528 FILLER_16_3
*1529 FILLER_16_301
*1530 FILLER_16_307
*1531 FILLER_16_309
*1532 FILLER_16_321
*1533 FILLER_16_333
*1534 FILLER_16_345
*1535 FILLER_16_357
*1536 FILLER_16_363
*1537 FILLER_16_365
*1538 FILLER_16_377
*1539 FILLER_16_389
*1540 FILLER_16_401
*1541 FILLER_16_41
*1542 FILLER_16_413
*1543 FILLER_16_419
*1544 FILLER_16_421
*1545 FILLER_16_433
*1546 FILLER_16_445
*1547 FILLER_16_457
*1548 FILLER_16_469
*1549 FILLER_16_475
*1550 FILLER_16_477
*1551 FILLER_16_489
*1552 FILLER_16_501
*1553 FILLER_16_513
*1554 FILLER_16_525
*1555 FILLER_16_53
*1556 FILLER_16_531
*1557 FILLER_16_533
*1558 FILLER_16_545
*1559 FILLER_16_557
*1560 FILLER_16_569
*1561 FILLER_16_581
*1562 FILLER_16_587
*1563 FILLER_16_589
*1564 FILLER_16_601
*1565 FILLER_16_613
*1566 FILLER_16_625
*1567 FILLER_16_637
*1568 FILLER_16_643
*1569 FILLER_16_645
*1570 FILLER_16_65
*1571 FILLER_16_657
*1572 FILLER_16_669
*1573 FILLER_16_681
*1574 FILLER_16_693
*1575 FILLER_16_699
*1576 FILLER_16_701
*1577 FILLER_16_713
*1578 FILLER_16_725
*1579 FILLER_16_737
*1580 FILLER_16_749
*1581 FILLER_16_755
*1582 FILLER_16_757
*1583 FILLER_16_769
*1584 FILLER_16_77
*1585 FILLER_16_781
*1586 FILLER_16_793
*1587 FILLER_16_805
*1588 FILLER_16_811
*1589 FILLER_16_813
*1590 FILLER_16_825
*1591 FILLER_16_83
*1592 FILLER_16_837
*1593 FILLER_16_849
*1594 FILLER_16_85
*1595 FILLER_16_861
*1596 FILLER_16_867
*1597 FILLER_16_869
*1598 FILLER_16_881
*1599 FILLER_16_893
*1600 FILLER_16_905
*1601 FILLER_16_917
*1602 FILLER_16_923
*1603 FILLER_16_925
*1604 FILLER_16_937
*1605 FILLER_16_949
*1606 FILLER_16_961
*1607 FILLER_16_97
*1608 FILLER_16_973
*1609 FILLER_16_979
*1610 FILLER_16_981
*1611 FILLER_16_993
*1612 FILLER_17_1001
*1613 FILLER_17_1007
*1614 FILLER_17_1009
*1615 FILLER_17_1021
*1616 FILLER_17_1033
*1617 FILLER_17_1045
*1618 FILLER_17_105
*1619 FILLER_17_1057
*1620 FILLER_17_1063
*1621 FILLER_17_1065
*1622 FILLER_17_1077
*1623 FILLER_17_1089
*1624 FILLER_17_1101