*SPEF "ieee 1481-1999"
*DESIGN "GPIO"
*DATE "11:11:11 Fri 11 11, 1111"
*VENDOR "OpenRCX"
*PROGRAM "Parallel Extraction"
*VERSION "1.0"
*DESIGN_FLOW "NAME_SCOPE LOCAL" "PIN_CAP NONE"
*DIVIDER /
*DELIMITER :
*BUS_DELIMITER []
*T_UNIT 1 NS
*C_UNIT 1 PF
*R_UNIT 1 OHM
*L_UNIT 1 HENRY

*NAME_MAP
*1 clk
*2 gpio0_input[0]
*3 gpio0_input[10]
*4 gpio0_input[11]
*5 gpio0_input[12]
*6 gpio0_input[13]
*7 gpio0_input[14]
*8 gpio0_input[15]
*9 gpio0_input[16]
*10 gpio0_input[17]
*11 gpio0_input[18]
*12 gpio0_input[1]
*13 gpio0_input[2]
*14 gpio0_input[3]
*15 gpio0_input[4]
*16 gpio0_input[5]
*17 gpio0_input[6]
*18 gpio0_input[7]
*19 gpio0_input[8]
*20 gpio0_input[9]
*21 gpio0_oe[0]
*22 gpio0_oe[10]
*23 gpio0_oe[11]
*24 gpio0_oe[12]
*25 gpio0_oe[13]
*26 gpio0_oe[14]
*27 gpio0_oe[15]
*28 gpio0_oe[16]
*29 gpio0_oe[17]
*30 gpio0_oe[18]
*31 gpio0_oe[1]
*32 gpio0_oe[2]
*33 gpio0_oe[3]
*34 gpio0_oe[4]
*35 gpio0_oe[5]
*36 gpio0_oe[6]
*37 gpio0_oe[7]
*38 gpio0_oe[8]
*39 gpio0_oe[9]
*40 gpio0_output[0]
*41 gpio0_output[10]
*42 gpio0_output[11]
*43 gpio0_output[12]
*44 gpio0_output[13]
*45 gpio0_output[14]
*46 gpio0_output[15]
*47 gpio0_output[16]
*48 gpio0_output[17]
*49 gpio0_output[18]
*50 gpio0_output[1]
*51 gpio0_output[2]
*52 gpio0_output[3]
*53 gpio0_output[4]
*54 gpio0_output[5]
*55 gpio0_output[6]
*56 gpio0_output[7]
*57 gpio0_output[8]
*58 gpio0_output[9]
*59 gpio1_input[0]
*60 gpio1_input[10]
*61 gpio1_input[11]
*62 gpio1_input[12]
*63 gpio1_input[13]
*64 gpio1_input[14]
*65 gpio1_input[15]
*66 gpio1_input[16]
*67 gpio1_input[17]
*68 gpio1_input[18]
*69 gpio1_input[1]
*70 gpio1_input[2]
*71 gpio1_input[3]
*72 gpio1_input[4]
*73 gpio1_input[5]
*74 gpio1_input[6]
*75 gpio1_input[7]
*76 gpio1_input[8]
*77 gpio1_input[9]
*78 gpio1_oe[0]
*79 gpio1_oe[10]
*80 gpio1_oe[11]
*81 gpio1_oe[12]
*82 gpio1_oe[13]
*83 gpio1_oe[14]
*84 gpio1_oe[15]
*85 gpio1_oe[16]
*86 gpio1_oe[17]
*87 gpio1_oe[18]
*88 gpio1_oe[1]
*89 gpio1_oe[2]
*90 gpio1_oe[3]
*91 gpio1_oe[4]
*92 gpio1_oe[5]
*93 gpio1_oe[6]
*94 gpio1_oe[7]
*95 gpio1_oe[8]
*96 gpio1_oe[9]
*97 gpio1_output[0]
*98 gpio1_output[10]
*99 gpio1_output[11]
*100 gpio1_output[12]
*101 gpio1_output[13]
*102 gpio1_output[14]
*103 gpio1_output[15]
*104 gpio1_output[16]
*105 gpio1_output[17]
*106 gpio1_output[18]
*107 gpio1_output[1]
*108 gpio1_output[2]
*109 gpio1_output[3]
*110 gpio1_output[4]
*111 gpio1_output[5]
*112 gpio1_output[6]
*113 gpio1_output[7]
*114 gpio1_output[8]
*115 gpio1_output[9]
*116 peripheralBus_address[0]
*117 peripheralBus_address[10]
*118 peripheralBus_address[11]
*119 peripheralBus_address[12]
*120 peripheralBus_address[13]
*121 peripheralBus_address[14]
*122 peripheralBus_address[15]
*123 peripheralBus_address[16]
*124 peripheralBus_address[17]
*125 peripheralBus_address[18]
*126 peripheralBus_address[19]
*127 peripheralBus_address[1]
*128 peripheralBus_address[20]
*129 peripheralBus_address[21]
*130 peripheralBus_address[22]
*131 peripheralBus_address[23]
*132 peripheralBus_address[2]
*133 peripheralBus_address[3]
*134 peripheralBus_address[4]
*135 peripheralBus_address[5]
*136 peripheralBus_address[6]
*137 peripheralBus_address[7]
*138 peripheralBus_address[8]
*139 peripheralBus_address[9]
*140 net181
*141 peripheralBus_dataIn[0]
*142 peripheralBus_dataIn[10]
*143 peripheralBus_dataIn[11]
*144 peripheralBus_dataIn[12]
*145 peripheralBus_dataIn[13]
*146 peripheralBus_dataIn[14]
*147 peripheralBus_dataIn[15]
*148 peripheralBus_dataIn[16]
*149 peripheralBus_dataIn[17]
*150 peripheralBus_dataIn[18]
*151 peripheralBus_dataIn[19]
*152 peripheralBus_dataIn[1]
*153 peripheralBus_dataIn[20]
*154 peripheralBus_dataIn[21]
*155 peripheralBus_dataIn[22]
*156 peripheralBus_dataIn[23]
*157 peripheralBus_dataIn[24]
*158 peripheralBus_dataIn[25]
*159 peripheralBus_dataIn[26]
*160 peripheralBus_dataIn[27]
*161 peripheralBus_dataIn[28]
*162 peripheralBus_dataIn[29]
*163 peripheralBus_dataIn[2]
*164 peripheralBus_dataIn[30]
*165 peripheralBus_dataIn[31]
*166 peripheralBus_dataIn[3]
*167 peripheralBus_dataIn[4]
*168 peripheralBus_dataIn[5]
*169 peripheralBus_dataIn[6]
*170 peripheralBus_dataIn[7]
*171 peripheralBus_dataIn[8]
*172 peripheralBus_dataIn[9]
*173 peripheralBus_dataOut[0]
*174 peripheralBus_dataOut[10]
*175 peripheralBus_dataOut[11]
*176 peripheralBus_dataOut[12]
*177 peripheralBus_dataOut[13]
*178 peripheralBus_dataOut[14]
*179 peripheralBus_dataOut[15]
*180 peripheralBus_dataOut[16]
*181 peripheralBus_dataOut[17]
*182 peripheralBus_dataOut[18]
*183 net182
*184 peripheralBus_dataOut[1]
*185 net183
*186 net184
*187 net185
*188 net186
*189 net187
*190 net188
*191 net189
*192 net190
*193 net191
*194 net192
*195 peripheralBus_dataOut[2]
*196 net193
*197 net194
*198 peripheralBus_dataOut[3]
*199 peripheralBus_dataOut[4]
*200 peripheralBus_dataOut[5]
*201 peripheralBus_dataOut[6]
*202 peripheralBus_dataOut[7]
*203 peripheralBus_dataOut[8]
*204 peripheralBus_dataOut[9]
*205 peripheralBus_oe
*206 peripheralBus_we
*207 requestOutput
*208 rst
*211 _0000_
*212 _0001_
*213 _0002_
*214 _0003_
*215 _0004_
*216 _0005_
*217 _0006_
*218 _0007_
*219 _0008_
*220 _0009_
*221 _0010_
*222 _0011_
*223 _0012_
*224 _0013_
*225 _0014_
*226 _0015_
*227 _0016_
*228 _0017_
*229 _0018_
*230 _0019_
*231 _0020_
*232 _0021_
*233 _0022_
*234 _0023_
*235 _0024_
*236 _0025_
*237 _0026_
*238 _0027_
*239 _0028_
*240 _0029_
*241 _0030_
*242 _0031_
*243 _0032_
*244 _0033_
*245 _0034_
*246 _0035_
*247 _0036_
*248 _0037_
*249 _0038_
*250 _0039_
*251 _0040_
*252 _0041_
*253 _0042_
*254 _0043_
*255 _0044_
*256 _0045_
*257 _0046_
*258 _0047_
*259 _0048_
*260 _0049_
*261 _0050_
*262 _0051_
*263 _0052_
*264 _0053_
*265 _0054_
*266 _0055_
*267 _0056_
*268 _0057_
*269 _0058_
*270 _0059_
*271 _0060_
*272 _0061_
*273 _0062_
*274 _0063_
*275 _0064_
*276 _0065_
*277 _0066_
*278 _0067_
*279 _0068_
*280 _0069_
*281 _0070_
*282 _0071_
*283 _0072_
*284 _0073_
*285 _0074_
*286 _0075_
*287 _0076_
*288 _0077_
*289 _0078_
*290 _0079_
*291 _0080_
*292 _0081_
*293 _0082_
*294 _0083_
*295 _0084_
*296 _0085_
*297 _0086_
*298 _0087_
*299 _0088_
*300 _0089_
*301 _0090_
*302 _0091_
*303 _0092_
*304 _0093_
*305 _0094_
*306 _0095_
*307 _0096_
*308 _0097_
*309 _0098_
*310 _0099_
*311 _0100_
*312 _0101_
*313 _0102_
*314 _0103_
*315 _0104_
*316 _0105_
*317 _0106_
*318 _0107_
*319 _0108_
*320 _0109_
*321 _0110_
*322 _0111_
*323 _0112_
*324 _0113_
*325 _0114_
*326 _0115_
*327 _0116_
*328 _0117_
*329 _0118_
*330 _0119_
*331 _0120_
*332 _0121_
*333 _0122_
*334 _0123_
*335 _0124_
*336 _0125_
*337 _0126_
*338 _0127_
*339 _0128_
*340 _0129_
*341 _0130_
*342 _0131_
*343 _0132_
*344 _0133_
*345 _0134_
*346 _0135_
*347 _0136_
*348 _0137_
*349 _0138_
*350 _0139_
*351 _0140_
*352 _0141_
*353 _0142_
*354 _0143_
*355 _0144_
*356 _0145_
*357 _0146_
*358 _0147_
*359 _0148_
*360 _0149_
*361 _0150_
*362 _0151_
*363 _0152_
*364 _0153_
*365 _0154_
*366 _0155_
*367 _0156_
*368 _0157_
*369 _0158_
*370 _0159_
*371 _0160_
*372 _0161_
*373 _0162_
*374 _0163_
*375 _0164_
*376 _0165_
*377 _0166_
*378 _0167_
*379 _0168_
*380 _0169_
*381 _0170_
*382 _0171_
*383 _0172_
*384 _0173_
*385 _0174_
*386 _0175_
*387 _0176_
*388 _0177_
*389 _0178_
*390 _0179_
*391 _0180_
*392 _0181_
*393 _0182_
*394 _0183_
*395 _0184_
*396 _0185_
*397 _0186_
*398 _0187_
*399 _0188_
*400 _0189_
*401 _0190_
*402 _0191_
*403 _0192_
*404 _0193_
*405 _0194_
*406 _0195_
*407 _0196_
*408 _0197_
*409 _0198_
*410 _0199_
*411 _0200_
*412 _0201_
*413 _0202_
*414 _0203_
*415 _0204_
*416 _0205_
*417 _0206_
*418 _0207_
*419 _0208_
*420 _0209_
*421 _0210_
*422 _0211_
*423 _0212_
*424 _0213_
*425 _0214_
*426 _0215_
*427 _0216_
*428 _0217_
*429 _0218_
*430 _0219_
*431 _0220_
*432 _0221_
*433 _0222_
*434 _0223_
*435 _0224_
*436 _0225_
*437 _0226_
*438 _0227_
*439 _0228_
*440 _0229_
*441 _0230_
*442 _0231_
*443 _0232_
*444 _0233_
*445 _0234_
*446 _0235_
*447 _0236_
*448 _0237_
*449 _0238_
*450 _0239_
*451 _0240_
*452 _0241_
*453 _0242_
*454 _0243_
*455 _0244_
*456 _0245_
*457 _0246_
*458 _0247_
*459 _0248_
*460 _0249_
*461 _0250_
*462 _0251_
*463 _0252_
*464 _0253_
*465 _0254_
*466 _0255_
*467 _0256_
*468 _0257_
*469 _0258_
*470 _0259_
*471 _0260_
*472 _0261_
*473 _0262_
*474 _0263_
*475 _0264_
*476 _0265_
*477 _0266_
*478 _0267_
*479 _0268_
*480 _0269_
*481 _0270_
*482 _0271_
*483 _0272_
*484 _0273_
*485 _0274_
*486 _0275_
*487 _0276_
*488 _0277_
*489 _0278_
*490 _0279_
*491 _0280_
*492 _0281_
*493 _0282_
*494 _0283_
*495 _0284_
*496 _0285_
*497 _0286_
*498 _0287_
*499 _0288_
*500 _0289_
*501 _0290_
*502 _0291_
*503 _0292_
*504 _0293_
*505 _0294_
*506 _0295_
*507 _0296_
*508 _0297_
*509 _0298_
*510 _0299_
*511 _0300_
*512 _0301_
*513 _0302_
*514 _0303_
*515 _0304_
*516 _0305_
*517 _0306_
*518 _0307_
*519 _0308_
*520 _0309_
*521 _0310_
*522 _0311_
*523 _0312_
*524 _0313_
*525 _0314_
*526 _0315_
*527 _0316_
*528 _0317_
*529 _0318_
*530 _0319_
*531 _0320_
*532 _0321_
*533 _0322_
*534 _0323_
*535 _0324_
*536 _0325_
*537 _0326_
*538 _0327_
*539 _0328_
*540 _0329_
*541 _0330_
*542 _0331_
*543 _0332_
*544 _0333_
*545 _0334_
*546 _0335_
*547 _0336_
*548 _0337_
*549 _0338_
*550 _0339_
*551 _0340_
*552 _0341_
*553 _0342_
*554 _0343_
*555 _0344_
*556 _0345_
*557 _0346_
*558 _0347_
*559 _0348_
*560 _0349_
*561 _0350_
*562 _0351_
*563 _0352_
*564 _0353_
*565 _0354_
*566 _0355_
*567 _0356_
*568 _0357_
*569 _0358_
*570 _0359_
*571 _0360_
*572 _0361_
*573 _0362_
*574 _0363_
*575 _0364_
*576 _0365_
*577 _0366_
*578 _0367_
*579 _0368_
*580 _0369_
*581 _0370_
*582 _0371_
*583 _0372_
*584 _0373_
*585 _0374_
*586 _0375_
*587 _0376_
*588 _0377_
*589 _0378_
*590 _0379_
*591 _0380_
*592 _0381_
*593 _0382_
*594 _0383_
*595 _0384_
*596 _0385_
*597 _0386_
*598 _0387_
*599 _0388_
*600 _0389_
*601 _0390_
*602 _0391_
*603 _0392_
*604 _0393_
*605 _0394_
*606 _0395_
*607 _0396_
*608 _0397_
*609 _0398_
*610 _0399_
*611 _0400_
*612 _0401_
*613 _0402_
*614 _0403_
*615 _0404_
*616 _0405_
*617 _0406_
*618 _0407_
*619 _0408_
*620 _0409_
*621 _0410_
*622 _0411_
*623 _0412_
*624 _0413_
*625 _0414_
*626 _0415_
*627 _0416_
*628 _0417_
*629 _0418_
*630 _0419_
*631 _0420_
*632 _0421_
*633 _0422_
*634 _0423_
*635 _0424_
*636 _0425_
*637 _0426_
*638 _0427_
*639 _0428_
*640 _0429_
*641 _0430_
*642 _0431_
*643 _0432_
*644 _0433_
*645 _0434_
*646 _0435_
*647 _0436_
*648 _0437_
*649 _0438_
*650 _0439_
*651 _0440_
*652 _0441_
*653 _0442_
*654 _0443_
*655 _0444_
*656 _0445_
*657 _0446_
*658 _0447_
*659 _0448_
*660 _0449_
*661 _0450_
*662 _0451_
*663 _0452_
*664 _0453_
*665 clknet_0_clk
*666 clknet_1_0_0_clk
*667 clknet_1_1_0_clk
*668 clknet_2_0_0_clk
*669 clknet_2_1_0_clk
*670 clknet_2_2_0_clk
*671 clknet_2_3_0_clk
*672 clknet_3_0_0_clk
*673 clknet_3_1_0_clk
*674 clknet_3_2_0_clk
*675 clknet_3_3_0_clk
*676 clknet_3_4_0_clk
*677 clknet_3_5_0_clk
*678 clknet_3_6_0_clk
*679 clknet_3_7_0_clk
*680 net1
*681 net10
*682 net100
*683 net101
*684 net102
*685 net103
*686 net104
*687 net105
*688 net106
*689 net107
*690 net108
*691 net109
*692 net11
*693 net110
*694 net111
*695 net112
*696 net113
*697 net114
*698 net115
*699 net116
*700 net117
*701 net118
*702 net119
*703 net12
*704 net120
*705 net121
*706 net122
*707 net123
*708 net124
*709 net125
*710 net126
*711 net127
*712 net128
*713 net129
*714 net13
*715 net130
*716 net131
*717 net132
*718 net133
*719 net134
*720 net135
*721 net136
*722 net137
*723 net138
*724 net139
*725 net14
*726 net140
*727 net141
*728 net142
*729 net143
*730 net144
*731 net145
*732 net146
*733 net147
*734 net148
*735 net149
*736 net15
*737 net150
*738 net151
*739 net152
*740 net153
*741 net154
*742 net155
*743 net156
*744 net157
*745 net158
*746 net159
*747 net16
*748 net160
*749 net161
*750 net162
*751 net163
*752 net164
*753 net165
*754 net166
*755 net167
*756 net168
*757 net169
*758 net17
*759 net170
*760 net171
*761 net172
*762 net173
*763 net174
*764 net175
*765 net176
*766 net177
*767 net178
*768 net179
*769 net18
*770 net180
*771 net19
*772 net2
*773 net20
*774 net21
*775 net22
*776 net23
*777 net24
*778 net25
*779 net26
*780 net27
*781 net28
*782 net29
*783 net3
*784 net30
*785 net31
*786 net32
*787 net33
*788 net34
*789 net35
*790 net36
*791 net37
*792 net38
*793 net39
*794 net4
*795 net40
*796 net41
*797 net42
*798 net43
*799 net44
*800 net45
*801 net46
*802 net47
*803 net48
*804 net49
*805 net5
*806 net50
*807 net51
*808 net52
*809 net53
*810 net54
*811 net55
*812 net56
*813 net57
*814 net58
*815 net59
*816 net6
*817 net60
*818 net61
*819 net62
*820 net63
*821 net64
*822 net65
*823 net66
*824 net67
*825 net68
*826 net69
*827 net7
*828 net70
*829 net71
*830 net72
*831 net73
*832 net74
*833 net75
*834 net76
*835 net77
*836 net78
*837 net79
*838 net8
*839 net80
*840 net81
*841 net82
*842 net83
*843 net84
*844 net85
*845 net86
*846 net87
*847 net88
*848 net89
*849 net9
*850 net90
*851 net91
*852 net92
*853 net93
*854 net94
*855 net95
*856 net96
*857 net97
*858 net98
*859 net99
*860 ANTENNA__0455__A
*861 ANTENNA__0470__B
*862 ANTENNA__0471__A_N
*863 ANTENNA__0471__C
*864 ANTENNA__0478__A
*865 ANTENNA__0480__A
*866 ANTENNA__0484__A
*867 ANTENNA__0485__A
*868 ANTENNA__0486__A
*869 ANTENNA__0489__B
*870 ANTENNA__0490__A
*871 ANTENNA__0493__A
*872 ANTENNA__0494__A
*873 ANTENNA__0496__A
*874 ANTENNA__0498__B
*875 ANTENNA__0500__A2
*876 ANTENNA__0500__B1
*877 ANTENNA__0500__C1
*878 ANTENNA__0505__A
*879 ANTENNA__0509__C
*880 ANTENNA__0512__A2
*881 ANTENNA__0512__A3
*882 ANTENNA__0514__A2
*883 ANTENNA__0515__A1
*884 ANTENNA__0517__A
*885 ANTENNA__0520__A
*886 ANTENNA__0521__A
*887 ANTENNA__0527__A
*888 ANTENNA__0531__A2
*889 ANTENNA__0538__A2
*890 ANTENNA__0545__A2
*891 ANTENNA__0554__A2
*892 ANTENNA__0557__A
*893 ANTENNA__0558__A
*894 ANTENNA__0559__A
*895 ANTENNA__0569__A2
*896 ANTENNA__0573__A
*897 ANTENNA__0574__A
*898 ANTENNA__0579__A
*899 ANTENNA__0583__A2
*900 ANTENNA__0588__A
*901 ANTENNA__0590__A2
*902 ANTENNA__0595__A
*903 ANTENNA__0597__A2
*904 ANTENNA__0604__A
*905 ANTENNA__0606__A2
*906 ANTENNA__0608__A
*907 ANTENNA__0609__A
*908 ANTENNA__0610__A
*909 ANTENNA__0618__A
*910 ANTENNA__0620__A2
*911 ANTENNA__0624__A
*912 ANTENNA__0625__A
*913 ANTENNA__0630__A
*914 ANTENNA__0632__A
*915 ANTENNA__0636__A
*916 ANTENNA__0639__A
*917 ANTENNA__0643__A
*918 ANTENNA__0646__A
*919 ANTENNA__0650__A
*920 ANTENNA__0655__A
*921 ANTENNA__0658__A2
*922 ANTENNA__0658__C1
*923 ANTENNA__0659__A
*924 ANTENNA__0663__A
*925 ANTENNA__0665__A2
*926 ANTENNA__0666__A2
*927 ANTENNA__0666__C1
*928 ANTENNA__0667__A
*929 ANTENNA__0667__B
*930 ANTENNA__0668__A2
*931 ANTENNA__0668__A3
*932 ANTENNA__0671__A
*933 ANTENNA__0671__B
*934 ANTENNA__0672__A3
*935 ANTENNA__0674__A2
*936 ANTENNA__0674__C1
*937 ANTENNA__0675__A
*938 ANTENNA__0675__B
*939 ANTENNA__0676__A2
*940 ANTENNA__0676__A3
*941 ANTENNA__0677__A1
*942 ANTENNA__0678__A
*943 ANTENNA__0678__B
*944 ANTENNA__0679__A3
*945 ANTENNA__0680__B1
*946 ANTENNA__0681__A2
*947 ANTENNA__0681__C1
*948 ANTENNA__0682__A
*949 ANTENNA__0682__B
*950 ANTENNA__0683__A2
*951 ANTENNA__0683__A3
*952 ANTENNA__0685__A
*953 ANTENNA__0685__B
*954 ANTENNA__0686__A3
*955 ANTENNA__0687__B1
*956 ANTENNA__0688__A
*957 ANTENNA__0693__A
*958 ANTENNA__0694__A
*959 ANTENNA__0695__A0
*960 ANTENNA__0698__A0
*961 ANTENNA__0701__A0
*962 ANTENNA__0704__A0
*963 ANTENNA__0707__A0
*964 ANTENNA__0711__A
*965 ANTENNA__0712__A0
*966 ANTENNA__0715__A0
*967 ANTENNA__0718__A0
*968 ANTENNA__0721__A0
*969 ANTENNA__0724__A0
*970 ANTENNA__0728__A
*971 ANTENNA__0729__A0
*972 ANTENNA__0732__A0
*973 ANTENNA__0735__A0
*974 ANTENNA__0738__A0
*975 ANTENNA__0741__A0
*976 ANTENNA__0745__A0
*977 ANTENNA__0745__S
*978 ANTENNA__0746__A_N
*979 ANTENNA__0748__A0
*980 ANTENNA__0748__S
*981 ANTENNA__0749__A_N
*982 ANTENNA__0751__A0
*983 ANTENNA__0751__S
*984 ANTENNA__0752__A_N
*985 ANTENNA__0754__A0
*986 ANTENNA__0754__S
*987 ANTENNA__0755__A_N
*988 ANTENNA__0758__A
*989 ANTENNA__0759__A
*990 ANTENNA__0760__A0
*991 ANTENNA__0761__A_N
*992 ANTENNA__0763__A
*993 ANTENNA__0764__A
*994 ANTENNA__0765__A0
*995 ANTENNA__0768__A0
*996 ANTENNA__0771__A0
*997 ANTENNA__0774__A0
*998 ANTENNA__0777__A
*999 ANTENNA__0778__A0
*1000 ANTENNA__0781__A
*1001 ANTENNA__0782__A0
*1002 ANTENNA__0785__A0
*1003 ANTENNA__0788__A0
*1004 ANTENNA__0791__A0
*1005 ANTENNA__0794__A
*1006 ANTENNA__0795__A0
*1007 ANTENNA__0798__A
*1008 ANTENNA__0799__A0
*1009 ANTENNA__0802__A0
*1010 ANTENNA__0802__A1
*1011 ANTENNA__0805__A0
*1012 ANTENNA__0805__A1
*1013 ANTENNA__0808__A0
*1014 ANTENNA__0808__A1
*1015 ANTENNA__0811__A0
*1016 ANTENNA__0811__A1
*1017 ANTENNA__0811__S
*1018 ANTENNA__0814__A
*1019 ANTENNA__0815__A0
*1020 ANTENNA__0815__A1
*1021 ANTENNA__0815__S
*1022 ANTENNA__0816__A_N
*1023 ANTENNA__0818__A0
*1024 ANTENNA__0818__A1
*1025 ANTENNA__0818__S
*1026 ANTENNA__0819__A_N
*1027 ANTENNA__0821__A0
*1028 ANTENNA__0821__A1
*1029 ANTENNA__0821__S
*1030 ANTENNA__0822__A_N
*1031 ANTENNA__0824__B
*1032 ANTENNA__0826__A
*1033 ANTENNA__0827__A
*1034 ANTENNA__0830__B1_N
*1035 ANTENNA__0831__A1
*1036 ANTENNA__0832__B1_N
*1037 ANTENNA__0833__A1
*1038 ANTENNA__0834__A
*1039 ANTENNA__0836__A1
*1040 ANTENNA__0838__A1
*1041 ANTENNA__0840__A1
*1042 ANTENNA__0844__A1
*1043 ANTENNA__0846__A1
*1044 ANTENNA__0847__A
*1045 ANTENNA__0849__A1
*1046 ANTENNA__0851__A1
*1047 ANTENNA__0853__A1
*1048 ANTENNA__0857__A1
*1049 ANTENNA__0859__A1
*1050 ANTENNA__0860__A
*1051 ANTENNA__0861__A
*1052 ANTENNA__0863__A1
*1053 ANTENNA__0865__A1
*1054 ANTENNA__0867__A1
*1055 ANTENNA__0869__A1
*1056 ANTENNA__0869__A2
*1057 ANTENNA__0871__A1
*1058 ANTENNA__0871__A2
*1059 ANTENNA__0872__A
*1060 ANTENNA__0873__A1
*1061 ANTENNA__0873__B1_N
*1062 ANTENNA__0874__A1
*1063 ANTENNA__0874__A2
*1064 ANTENNA__0875__B1_N
*1065 ANTENNA__0876__A1
*1066 ANTENNA__0876__A2
*1067 ANTENNA__0879__A
*1068 ANTENNA__0882__A
*1069 ANTENNA__0883__B1_N
*1070 ANTENNA__0884__A1
*1071 ANTENNA__0885__B1_N
*1072 ANTENNA__0886__A1
*1073 ANTENNA__0887__B1_N
*1074 ANTENNA__0888__A1
*1075 ANTENNA__0889__A
*1076 ANTENNA__0891__A1
*1077 ANTENNA__0893__A1
*1078 ANTENNA__0897__A1
*1079 ANTENNA__0899__A1
*1080 ANTENNA__0900__A1
*1081 ANTENNA__0901__A1
*1082 ANTENNA__0902__A
*1083 ANTENNA__0903__A1
*1084 ANTENNA__0904__A1
*1085 ANTENNA__0905__A1
*1086 ANTENNA__0906__A1
*1087 ANTENNA__0909__A1
*1088 ANTENNA__0910__A1
*1089 ANTENNA__0911__A1
*1090 ANTENNA__0912__A1
*1091 ANTENNA__0913__A1
*1092 ANTENNA__0914__A1
*1093 ANTENNA__0915__A
*1094 ANTENNA__0916__A1
*1095 ANTENNA__0917__A1
*1096 ANTENNA__0918__A1
*1097 ANTENNA__0919__A1
*1098 ANTENNA__0920__A1
*1099 ANTENNA__0920__A2
*1100 ANTENNA__0921__A1
*1101 ANTENNA__0921__A2
*1102 ANTENNA__0922__A1
*1103 ANTENNA__0922__A2
*1104 ANTENNA__0923__A1
*1105 ANTENNA__0923__A2
*1106 ANTENNA__0924__A1
*1107 ANTENNA__0924__A2
*1108 ANTENNA__0925__A1
*1109 ANTENNA__0925__A2
*1110 ANTENNA__0926__A1
*1111 ANTENNA__0926__A2
*1112 ANTENNA__0927__A1
*1113 ANTENNA__0927__A2
*1114 ANTENNA__0928__CLK
*1115 ANTENNA__0929__CLK
*1116 ANTENNA__0930__CLK
*1117 ANTENNA__0931__CLK
*1118 ANTENNA__0932__CLK
*1119 ANTENNA__0933__CLK
*1120 ANTENNA__0934__CLK
*1121 ANTENNA__0935__CLK
*1122 ANTENNA__0947__CLK
*1123 ANTENNA__0950__CLK
*1124 ANTENNA__0951__CLK
*1125 ANTENNA__0955__CLK
*1126 ANTENNA__0976__CLK
*1127 ANTENNA__0977__CLK
*1128 ANTENNA__0978__CLK
*1129 ANTENNA__0979__CLK
*1130 ANTENNA__0995__CLK
*1131 ANTENNA__0998__CLK
*1132 ANTENNA__0999__CLK
*1133 ANTENNA_clkbuf_0_clk_A
*1134 ANTENNA_clkbuf_1_0_0_clk_A
*1135 ANTENNA_clkbuf_1_1_0_clk_A
*1136 ANTENNA_input10_A
*1137 ANTENNA_input11_A
*1138 ANTENNA_input12_A
*1139 ANTENNA_input13_A
*1140 ANTENNA_input14_A
*1141 ANTENNA_input15_A
*1142 ANTENNA_input16_A
*1143 ANTENNA_input17_A
*1144 ANTENNA_input18_A
*1145 ANTENNA_input19_A
*1146 ANTENNA_input1_A
*1147 ANTENNA_input20_A
*1148 ANTENNA_input21_A
*1149 ANTENNA_input22_A
*1150 ANTENNA_input23_A
*1151 ANTENNA_input24_A
*1152 ANTENNA_input25_A
*1153 ANTENNA_input26_A
*1154 ANTENNA_input27_A
*1155 ANTENNA_input28_A
*1156 ANTENNA_input29_A
*1157 ANTENNA_input2_A
*1158 ANTENNA_input30_A
*1159 ANTENNA_input31_A
*1160 ANTENNA_input32_A
*1161 ANTENNA_input33_A
*1162 ANTENNA_input34_A
*1163 ANTENNA_input35_A
*1164 ANTENNA_input36_A
*1165 ANTENNA_input37_A
*1166 ANTENNA_input38_A
*1167 ANTENNA_input39_A
*1168 ANTENNA_input3_A
*1169 ANTENNA_input40_A
*1170 ANTENNA_input41_A
*1171 ANTENNA_input42_A
*1172 ANTENNA_input43_A
*1173 ANTENNA_input44_A
*1174 ANTENNA_input45_A
*1175 ANTENNA_input46_A
*1176 ANTENNA_input47_A
*1177 ANTENNA_input48_A
*1178 ANTENNA_input49_A
*1179 ANTENNA_input4_A
*1180 ANTENNA_input50_A
*1181 ANTENNA_input51_A
*1182 ANTENNA_input52_A
*1183 ANTENNA_input53_A
*1184 ANTENNA_input54_A
*1185 ANTENNA_input55_A
*1186 ANTENNA_input56_A
*1187 ANTENNA_input57_A
*1188 ANTENNA_input58_A
*1189 ANTENNA_input59_A
*1190 ANTENNA_input5_A
*1191 ANTENNA_input60_A
*1192 ANTENNA_input61_A
*1193 ANTENNA_input62_A
*1194 ANTENNA_input63_A
*1195 ANTENNA_input64_A
*1196 ANTENNA_input65_A
*1197 ANTENNA_input66_A
*1198 ANTENNA_input67_A
*1199 ANTENNA_input68_A
*1200 ANTENNA_input69_A
*1201 ANTENNA_input6_A
*1202 ANTENNA_input70_A
*1203 ANTENNA_input71_A
*1204 ANTENNA_input72_A
*1205 ANTENNA_input73_A
*1206 ANTENNA_input74_A
*1207 ANTENNA_input75_A
*1208 ANTENNA_input76_A
*1209 ANTENNA_input77_A
*1210 ANTENNA_input78_A
*1211 ANTENNA_input79_A
*1212 ANTENNA_input7_A
*1213 ANTENNA_input80_A
*1214 ANTENNA_input81_A
*1215 ANTENNA_input82_A
*1216 ANTENNA_input83_A
*1217 ANTENNA_input84_A
*1218 ANTENNA_input8_A
*1219 ANTENNA_input9_A
*1220 ANTENNA_output124_A
*1221 ANTENNA_output125_A
*1222 ANTENNA_output126_A
*1223 ANTENNA_output127_A
*1224 ANTENNA_output128_A
*1225 ANTENNA_output129_A
*1226 ANTENNA_output130_A
*1227 ANTENNA_output131_A
*1228 ANTENNA_output132_A
*1229 ANTENNA_output139_A
*1230 ANTENNA_output140_A
*1231 ANTENNA_output141_A
*1232 ANTENNA_output150_A
*1233 ANTENNA_output163_A
*1234 ANTENNA_output164_A
*1235 ANTENNA_output165_A
*1236 ANTENNA_output166_A
*1237 ANTENNA_output167_A
*1238 ANTENNA_output168_A
*1239 ANTENNA_output169_A
*1240 ANTENNA_output170_A
*1241 ANTENNA_output88_A
*1242 ANTENNA_output89_A
*1243 ANTENNA_output90_A
*1244 ANTENNA_output91_A
*1245 ANTENNA_output92_A
*1246 ANTENNA_output93_A
*1247 ANTENNA_output94_A
*1248 FILLER_0_108
*1249 FILLER_0_117
*1250 FILLER_0_125
*1251 FILLER_0_13
*1252 FILLER_0_131
*1253 FILLER_0_136
*1254 FILLER_0_145
*1255 FILLER_0_153
*1256 FILLER_0_158
*1257 FILLER_0_164
*1258 FILLER_0_172
*1259 FILLER_0_180
*1260 FILLER_0_188
*1261 FILLER_0_197
*1262 FILLER_0_202
*1263 FILLER_0_210
*1264 FILLER_0_217
*1265 FILLER_0_223
*1266 FILLER_0_229
*1267 FILLER_0_23
*1268 FILLER_0_237
*1269 FILLER_0_241
*1270 FILLER_0_246
*1271 FILLER_0_257
*1272 FILLER_0_263
*1273 FILLER_0_268
*1274 FILLER_0_27
*1275 FILLER_0_276
*1276 FILLER_0_281
*1277 FILLER_0_285
*1278 FILLER_0_290
*1279 FILLER_0_298
*1280 FILLER_0_304
*1281 FILLER_0_313
*1282 FILLER_0_321
*1283 FILLER_0_328
*1284 FILLER_0_341
*1285 FILLER_0_349
*1286 FILLER_0_357
*1287 FILLER_0_363
*1288 FILLER_0_369
*1289 FILLER_0_379
*1290 FILLER_0_383
*1291 FILLER_0_388
*1292 FILLER_0_39
*1293 FILLER_0_403
*1294 FILLER_0_47
*1295 FILLER_0_55
*1296 FILLER_0_61
*1297 FILLER_0_69
*1298 FILLER_0_77
*1299 FILLER_0_83
*1300 FILLER_0_85
*1301 FILLER_0_91
*1302 FILLER_0_97
*1303 FILLER_10_11
*1304 FILLER_10_111
*1305 FILLER_10_123
*1306 FILLER_10_131
*1307 FILLER_10_139
*1308 FILLER_10_14
*1309 FILLER_10_141
*1310 FILLER_10_153
*1311 FILLER_10_165
*1312 FILLER_10_169
*1313 FILLER_10_181
*1314 FILLER_10_193
*1315 FILLER_10_197
*1316 FILLER_10_209
*1317 FILLER_10_221
*1318 FILLER_10_238
*1319 FILLER_10_24
*1320 FILLER_10_244
*1321 FILLER_10_253
*1322 FILLER_10_265
*1323 FILLER_10_269
*1324 FILLER_10_286
*1325 FILLER_10_29
*1326 FILLER_10_294
*1327 FILLER_10_300
*1328 FILLER_10_309
*1329 FILLER_10_318
*1330 FILLER_10_340
*1331 FILLER_10_346
*1332 FILLER_10_360
*1333 FILLER_10_374
*1334 FILLER_10_381
*1335 FILLER_10_395
*1336 FILLER_10_403
*1337 FILLER_10_41
*1338 FILLER_10_47
*1339 FILLER_10_59
*1340 FILLER_10_7
*1341 FILLER_10_71
*1342 FILLER_10_75
*1343 FILLER_10_83
*1344 FILLER_10_85
*1345 FILLER_10_93
*1346 FILLER_10_99
*1347 FILLER_11_101
*1348 FILLER_11_109
*1349 FILLER_11_113
*1350 FILLER_11_125
*1351 FILLER_11_13
*1352 FILLER_11_136
*1353 FILLER_11_144
*1354 FILLER_11_156
*1355 FILLER_11_169
*1356 FILLER_11_181
*1357 FILLER_11_189
*1358 FILLER_11_208
*1359 FILLER_11_216
*1360 FILLER_11_220
*1361 FILLER_11_225
*1362 FILLER_11_234
*1363 FILLER_11_255
*1364 FILLER_11_269
*1365 FILLER_11_277
*1366 FILLER_11_281
*1367 FILLER_11_290
*1368 FILLER_11_304
*1369 FILLER_11_312
*1370 FILLER_11_322
*1371 FILLER_11_33
*1372 FILLER_11_334
*1373 FILLER_11_337
*1374 FILLER_11_349
*1375 FILLER_11_355
*1376 FILLER_11_368
*1377 FILLER_11_388
*1378 FILLER_11_402
*1379 FILLER_11_406
*1380 FILLER_11_45
*1381 FILLER_11_51
*1382 FILLER_11_55
*1383 FILLER_11_57
*1384 FILLER_11_61
*1385 FILLER_11_7
*1386 FILLER_11_71
*1387 FILLER_11_81
*1388 FILLER_11_89
*1389 FILLER_12_102
*1390 FILLER_12_11
*1391 FILLER_12_113
*1392 FILLER_12_124
*1393 FILLER_12_130
*1394 FILLER_12_138
*1395 FILLER_12_151
*1396 FILLER_12_175
*1397 FILLER_12_189
*1398 FILLER_12_195
*1399 FILLER_12_205
*1400 FILLER_12_211
*1401 FILLER_12_22
*1402 FILLER_12_221
*1403 FILLER_12_231
*1404 FILLER_12_243
*1405 FILLER_12_251
*1406 FILLER_12_253
*1407 FILLER_12_257
*1408 FILLER_12_266
*1409 FILLER_12_286
*1410 FILLER_12_294
*1411 FILLER_12_3
*1412 FILLER_12_306
*1413 FILLER_12_309
*1414 FILLER_12_313
*1415 FILLER_12_324
*1416 FILLER_12_334
*1417 FILLER_12_340
*1418 FILLER_12_358
*1419 FILLER_12_371
*1420 FILLER_12_379
*1421 FILLER_12_396
*1422 FILLER_12_403
*1423 FILLER_12_45
*1424 FILLER_12_57
*1425 FILLER_12_76
*1426 FILLER_12_85
*1427 FILLER_12_97
*1428 FILLER_13_108
*1429 FILLER_13_113
*1430 FILLER_13_124
*1431 FILLER_13_13
*1432 FILLER_13_135
*1433 FILLER_13_143
*1434 FILLER_13_155
*1435 FILLER_13_167
*1436 FILLER_13_169
*1437 FILLER_13_17
*1438 FILLER_13_193
*1439 FILLER_13_203
*1440 FILLER_13_211
*1441 FILLER_13_223
*1442 FILLER_13_225
*1443 FILLER_13_233
*1444 FILLER_13_243
*1445 FILLER_13_251
*1446 FILLER_13_257
*1447 FILLER_13_271
*1448 FILLER_13_279
*1449 FILLER_13_283
*1450 FILLER_13_291
*1451 FILLER_13_299
*1452 FILLER_13_311
*1453 FILLER_13_319
*1454 FILLER_13_324
*1455 FILLER_13_332
*1456 FILLER_13_337
*1457 FILLER_13_34
*1458 FILLER_13_345
*1459 FILLER_13_349
*1460 FILLER_13_357
*1461 FILLER_13_369
*1462 FILLER_13_373
*1463 FILLER_13_377
*1464 FILLER_13_388
*1465 FILLER_13_403
*1466 FILLER_13_46
*1467 FILLER_13_52
*1468 FILLER_13_57
*1469 FILLER_13_6
*1470 FILLER_13_65
*1471 FILLER_13_82
*1472 FILLER_13_94
*1473 FILLER_14_107
*1474 FILLER_14_117
*1475 FILLER_14_125
*1476 FILLER_14_129
*1477 FILLER_14_13
*1478 FILLER_14_136
*1479 FILLER_14_143
*1480 FILLER_14_151
*1481 FILLER_14_164
*1482 FILLER_14_180
*1483 FILLER_14_19
*1484 FILLER_14_190
*1485 FILLER_14_201
*1486 FILLER_14_215
*1487 FILLER_14_221
*1488 FILLER_14_229
*1489 FILLER_14_235
*1490 FILLER_14_241
*1491 FILLER_14_245
*1492 FILLER_14_248
*1493 FILLER_14_256
*1494 FILLER_14_264
*1495 FILLER_14_27
*1496 FILLER_14_271
*1497 FILLER_14_277
*1498 FILLER_14_285
*1499 FILLER_14_29
*1500 FILLER_14_293
*1501 FILLER_14_3
*1502 FILLER_14_305
*1503 FILLER_14_309
*1504 FILLER_14_313
*1505 FILLER_14_320
*1506 FILLER_14_326
*1507 FILLER_14_343
*1508 FILLER_14_355
*1509 FILLER_14_363
*1510 FILLER_14_365
*1511 FILLER_14_373
*1512 FILLER_14_378
*1513 FILLER_14_384
*1514 FILLER_14_400
*1515 FILLER_14_406
*1516 FILLER_14_41
*1517 FILLER_14_53
*1518 FILLER_14_65
*1519 FILLER_14_69
*1520 FILLER_14_78
*1521 FILLER_14_85
*1522 FILLER_14_97
*1523 FILLER_15_104
*1524 FILLER_15_119
*1525 FILLER_15_13
*1526 FILLER_15_136
*1527 FILLER_15_148
*1528 FILLER_15_164
*1529 FILLER_15_175
*1530 FILLER_15_181
*1531 FILLER_15_184
*1532 FILLER_15_19
*1533 FILLER_15_192
*1534 FILLER_15_199
*1535 FILLER_15_207
*1536 FILLER_15_219
*1537 FILLER_15_223
*1538 FILLER_15_225
*1539 FILLER_15_235
*1540 FILLER_15_247
*1541 FILLER_15_25
*1542 FILLER_15_259
*1543 FILLER_15_263
*1544 FILLER_15_269
*1545 FILLER_15_277
*1546 FILLER_15_281
*1547 FILLER_15_293
*1548 FILLER_15_305
*1549 FILLER_15_309
*1550 FILLER_15_314
*1551 FILLER_15_326
*1552 FILLER_15_334
*1553 FILLER_15_337
*1554 FILLER_15_349
*1555 FILLER_15_361
*1556 FILLER_15_37
*1557 FILLER_15_373
*1558 FILLER_15_385
*1559 FILLER_15_391
*1560 FILLER_15_395
*1561 FILLER_15_403
*1562 FILLER_15_49
*1563 FILLER_15_55
*1564 FILLER_15_57
*1565 FILLER_15_69
*1566 FILLER_15_7
*1567 FILLER_15_81
*1568 FILLER_15_86
*1569 FILLER_15_92
*1570 FILLER_16_111
*1571 FILLER_16_129
*1572 FILLER_16_13
*1573 FILLER_16_137
*1574 FILLER_16_141
*1575 FILLER_16_145
*1576 FILLER_16_153
*1577 FILLER_16_161
*1578 FILLER_16_166
*1579 FILLER_16_172
*1580 FILLER_16_184
*1581 FILLER_16_197
*1582 FILLER_16_20
*1583 FILLER_16_209
*1584 FILLER_16_221
*1585 FILLER_16_233
*1586 FILLER_16_245
*1587 FILLER_16_251
*1588 FILLER_16_253
*1589 FILLER_16_267
*1590 FILLER_16_273
*1591 FILLER_16_285
*1592 FILLER_16_29
*1593 FILLER_16_297
*1594 FILLER_16_3
*1595 FILLER_16_305
*1596 FILLER_16_311
*1597 FILLER_16_324
*1598 FILLER_16_336
*1599 FILLER_16_348
*1600 FILLER_16_360
*1601 FILLER_16_365
*1602 FILLER_16_377
*1603 FILLER_16_380
*1604 FILLER_16_387
*1605 FILLER_16_395
*1606 FILLER_16_403
*1607 FILLER_16_41
*1608 FILLER_16_53
*1609 FILLER_16_65
*1610 FILLER_16_77
*1611 FILLER_16_83
*1612 FILLER_16_85
*1613 FILLER_16_93
*1614 FILLER_16_99
*1615 FILLER_17_108
*1616 FILLER_17_113
*1617 FILLER_17_124
*1618 FILLER_17_130
*1619 FILLER_17_135
*1620 FILLER_17_141
*1621 FILLER_17_153
*1622 FILLER_17_165
*1623 FILLER_17_169
*1624 FILLER_17_17
*1625 FILLER_17_181
*1626 FILLER_17_193
*1627 FILLER_17_205
*1628 FILLER_17_209
*1629 FILLER_17_220
*1630 FILLER_17_23
*1631 FILLER_17_233
*1632 FILLER_17_245
*1633 FILLER_17_261
*1634 FILLER_17_273
*1635 FILLER_17_279
*1636 FILLER_17_281
*1637 FILLER_17_293
*1638 FILLER_17_297
*1639 FILLER_17_300
*1640 FILLER_17_312
*1641 FILLER_17_318
*1642 FILLER_17_324
*1643 FILLER_17_337
*1644 FILLER_17_345
*1645 FILLER_17_35
*1646 FILLER_17_359
*1647 FILLER_17_379
*1648 FILLER_17_391
*1649 FILLER_17_402
*1650 FILLER_17_406
*1651 FILLER_17_47
*1652 FILLER_17_55
*1653 FILLER_17_57
*1654 FILLER_17_69
*1655 FILLER_17_7
*1656 FILLER_17_81
*1657 FILLER_17_90