*SPEF "ieee 1481-1999"
*DESIGN "IOMultiplexer"
*DATE "11:11:11 Fri 11 11, 1111"
*VENDOR "OpenRCX"
*PROGRAM "Parallel Extraction"
*VERSION "1.0"
*DESIGN_FLOW "NAME_SCOPE LOCAL" "PIN_CAP NONE"
*DIVIDER /
*DELIMITER :
*BUS_DELIMITER []
*T_UNIT 1 NS
*C_UNIT 1 PF
*R_UNIT 1 OHM
*L_UNIT 1 HENRY

*NAME_MAP
*1 clk
*2 gpio0_input[0]
*3 gpio0_input[10]
*4 gpio0_input[11]
*5 gpio0_input[12]
*6 gpio0_input[13]
*7 gpio0_input[14]
*8 gpio0_input[15]
*9 gpio0_input[16]
*10 gpio0_input[17]
*11 gpio0_input[18]
*12 gpio0_input[1]
*13 gpio0_input[2]
*14 gpio0_input[3]
*15 gpio0_input[4]
*16 gpio0_input[5]
*17 gpio0_input[6]
*18 gpio0_input[7]
*19 gpio0_input[8]
*20 gpio0_input[9]
*21 gpio0_oe[0]
*22 gpio0_oe[10]
*23 gpio0_oe[11]
*24 gpio0_oe[12]
*25 gpio0_oe[13]
*26 gpio0_oe[14]
*27 gpio0_oe[15]
*28 gpio0_oe[16]
*29 gpio0_oe[17]
*30 gpio0_oe[18]
*31 gpio0_oe[1]
*32 gpio0_oe[2]
*33 gpio0_oe[3]
*34 gpio0_oe[4]
*35 gpio0_oe[5]
*36 gpio0_oe[6]
*37 gpio0_oe[7]
*38 gpio0_oe[8]
*39 gpio0_oe[9]
*40 gpio0_output[0]
*41 gpio0_output[10]
*42 gpio0_output[11]
*43 gpio0_output[12]
*44 gpio0_output[13]
*45 gpio0_output[14]
*46 gpio0_output[15]
*47 gpio0_output[16]
*48 gpio0_output[17]
*49 gpio0_output[18]
*50 gpio0_output[1]
*51 gpio0_output[2]
*52 gpio0_output[3]
*53 gpio0_output[4]
*54 gpio0_output[5]
*55 gpio0_output[6]
*56 gpio0_output[7]
*57 gpio0_output[8]
*58 gpio0_output[9]
*59 gpio1_input[0]
*60 gpio1_input[10]
*61 gpio1_input[11]
*62 gpio1_input[12]
*63 gpio1_input[13]
*64 gpio1_input[14]
*65 gpio1_input[15]
*66 gpio1_input[16]
*67 gpio1_input[17]
*68 gpio1_input[18]
*69 gpio1_input[1]
*70 gpio1_input[2]
*71 gpio1_input[3]
*72 gpio1_input[4]
*73 gpio1_input[5]
*74 gpio1_input[6]
*75 gpio1_input[7]
*76 gpio1_input[8]
*77 gpio1_input[9]
*78 gpio1_oe[0]
*79 gpio1_oe[10]
*80 gpio1_oe[11]
*81 gpio1_oe[12]
*82 gpio1_oe[13]
*83 gpio1_oe[14]
*84 gpio1_oe[15]
*85 gpio1_oe[16]
*86 gpio1_oe[17]
*87 gpio1_oe[18]
*88 gpio1_oe[1]
*89 gpio1_oe[2]
*90 gpio1_oe[3]
*91 gpio1_oe[4]
*92 gpio1_oe[5]
*93 gpio1_oe[6]
*94 gpio1_oe[7]
*95 gpio1_oe[8]
*96 gpio1_oe[9]
*97 gpio1_output[0]
*98 gpio1_output[10]
*99 gpio1_output[11]
*100 gpio1_output[12]
*101 gpio1_output[13]
*102 gpio1_output[14]
*103 gpio1_output[15]
*104 gpio1_output[16]
*105 gpio1_output[17]
*106 gpio1_output[18]
*107 gpio1_output[1]
*108 gpio1_output[2]
*109 gpio1_output[3]
*110 gpio1_output[4]
*111 gpio1_output[5]
*112 gpio1_output[6]
*113 gpio1_output[7]
*114 gpio1_output[8]
*115 gpio1_output[9]
*116 io_in[0]
*117 io_in[10]
*118 io_in[11]
*119 io_in[12]
*120 io_in[13]
*121 io_in[14]
*122 io_in[15]
*123 io_in[16]
*124 io_in[17]
*125 io_in[18]
*126 io_in[19]
*127 io_in[1]
*128 io_in[20]
*129 io_in[21]
*130 io_in[22]
*131 io_in[23]
*132 io_in[24]
*133 io_in[25]
*134 io_in[26]
*135 io_in[27]
*136 io_in[28]
*137 io_in[29]
*138 io_in[2]
*139 io_in[30]
*140 io_in[31]
*141 io_in[32]
*142 io_in[33]
*143 io_in[34]
*144 io_in[35]
*145 io_in[36]
*146 io_in[37]
*147 io_in[3]
*148 io_in[4]
*149 io_in[5]
*150 io_in[6]
*151 io_in[7]
*152 io_in[8]
*153 io_in[9]
*154 io_oeb[0]
*155 io_oeb[10]
*156 io_oeb[11]
*157 io_oeb[12]
*158 io_oeb[13]
*159 io_oeb[14]
*160 io_oeb[15]
*161 io_oeb[16]
*162 io_oeb[17]
*163 io_oeb[18]
*164 io_oeb[19]
*165 io_oeb[1]
*166 io_oeb[20]
*167 io_oeb[21]
*168 io_oeb[22]
*169 io_oeb[23]
*170 io_oeb[24]
*171 io_oeb[25]
*172 io_oeb[26]
*173 io_oeb[27]
*174 io_oeb[28]
*175 io_oeb[29]
*176 io_oeb[2]
*177 io_oeb[30]
*178 io_oeb[31]
*179 io_oeb[32]
*180 io_oeb[33]
*181 io_oeb[34]
*182 io_oeb[35]
*183 io_oeb[36]
*184 io_oeb[37]
*185 io_oeb[3]
*186 io_oeb[4]
*187 io_oeb[5]
*188 io_oeb[6]
*189 io_oeb[7]
*190 io_oeb[8]
*191 io_oeb[9]
*192 io_out[0]
*193 io_out[10]
*194 io_out[11]
*195 io_out[12]
*196 io_out[13]
*197 io_out[14]
*198 io_out[15]
*199 io_out[16]
*200 io_out[17]
*201 io_out[18]
*202 io_out[19]
*203 io_out[1]
*204 io_out[20]
*205 io_out[21]
*206 io_out[22]
*207 io_out[23]
*208 io_out[24]
*209 io_out[25]
*210 io_out[26]
*211 io_out[27]
*212 io_out[28]
*213 io_out[29]
*214 io_out[2]
*215 io_out[30]
*216 io_out[31]
*217 io_out[32]
*218 io_out[33]
*219 io_out[34]
*220 io_out[35]
*221 io_out[36]
*222 io_out[37]
*223 io_out[3]
*224 io_out[4]
*225 io_out[5]
*226 io_out[6]
*227 io_out[7]
*228 io_out[8]
*229 io_out[9]
*230 la_blink[0]
*231 la_blink[1]
*232 pwm_en[0]
*233 pwm_en[10]
*234 pwm_en[11]
*235 pwm_en[12]
*236 pwm_en[13]
*237 pwm_en[14]
*238 pwm_en[15]
*239 pwm_en[1]
*240 pwm_en[2]
*241 pwm_en[3]
*242 pwm_en[4]
*243 pwm_en[5]
*244 pwm_en[6]
*245 pwm_en[7]
*246 pwm_en[8]
*247 pwm_en[9]
*248 pwm_out[0]
*249 pwm_out[10]
*250 pwm_out[11]
*251 pwm_out[12]
*252 pwm_out[13]
*253 pwm_out[14]
*254 pwm_out[15]
*255 pwm_out[1]
*256 pwm_out[2]
*257 pwm_out[3]
*258 pwm_out[4]
*259 pwm_out[5]
*260 pwm_out[6]
*261 pwm_out[7]
*262 pwm_out[8]
*263 pwm_out[9]
*264 rst
*265 spi_clk[0]
*266 spi_clk[1]
*267 spi_cs[0]
*268 spi_cs[1]
*269 spi_en[0]
*270 spi_en[1]
*271 net280
*272 net281
*273 spi_mosi[0]
*274 spi_mosi[1]
*275 uart_en[0]
*276 uart_en[1]
*277 uart_en[2]
*278 uart_en[3]
*279 net282
*280 net283
*281 net284
*282 net285
*283 uart_tx[0]
*284 uart_tx[1]
*285 uart_tx[2]
*286 uart_tx[3]
*289 _000_
*290 _001_
*291 _002_
*292 _003_
*293 _004_
*294 _005_
*295 _006_
*296 _007_
*297 _008_
*298 _009_
*299 _010_
*300 _011_
*301 _012_
*302 _013_
*303 _014_
*304 _015_
*305 _016_
*306 _017_
*307 _018_
*308 _019_
*309 _020_
*310 _021_
*311 _022_
*312 _023_
*313 _024_
*314 _025_
*315 _026_
*316 _027_
*317 _028_
*318 _029_
*319 _030_
*320 _031_
*321 _032_
*322 _033_
*323 _034_
*324 _035_
*325 _036_
*326 _037_
*327 _038_
*328 _039_
*329 _040_
*330 _041_
*331 _042_
*332 _043_
*333 _044_
*334 _045_
*335 _046_
*336 _047_
*337 _048_
*338 _049_
*339 _050_
*340 _051_
*341 _052_
*342 _053_
*343 _054_
*344 _055_
*345 _056_
*346 _057_
*347 _058_
*348 _059_
*349 _060_
*350 _061_
*351 _062_
*352 _063_
*353 _064_
*354 _065_
*355 _066_
*356 _067_
*357 _068_
*358 _069_
*359 _070_
*360 _071_
*361 _072_
*362 _073_
*363 _074_
*364 _075_
*365 _076_
*366 _077_
*367 _078_
*368 _079_
*369 _080_
*370 _081_
*371 _082_
*372 _083_
*373 _084_
*374 _085_
*375 _086_
*376 _087_
*377 _088_
*378 _089_
*379 _090_
*380 _091_
*381 _092_
*382 _093_
*383 _094_
*384 _095_
*385 _096_
*386 _097_
*387 _098_
*388 _099_
*389 _100_
*390 _101_
*391 _102_
*392 _103_
*393 _104_
*394 _105_
*395 _106_
*396 _107_
*397 _108_
*398 _109_
*399 _110_
*400 _111_
*401 _112_
*402 _113_
*403 _114_
*404 _115_
*405 _116_
*406 _117_
*407 _118_
*408 _119_
*409 _120_
*410 _121_
*411 _122_
*412 _123_
*413 _124_
*414 _125_
*415 _126_
*416 _127_
*417 _128_
*418 _129_
*419 _130_
*420 _131_
*421 _132_
*422 _133_
*423 _134_
*424 _135_
*425 _136_
*426 _137_
*427 _138_
*428 _139_
*429 _140_
*430 _141_
*431 _142_
*432 _143_
*433 _144_
*434 _145_
*435 _146_
*436 _147_
*437 _148_
*438 _149_
*439 _150_
*440 _151_
*441 _152_
*442 _153_
*443 _154_
*444 _155_
*445 _156_
*446 _157_
*447 _158_
*448 _159_
*449 _160_
*450 _161_
*451 _162_
*452 _163_
*453 _164_
*454 _165_
*455 _166_
*456 _167_
*457 _168_
*458 _169_
*459 _170_
*460 _171_
*461 _172_
*462 _173_
*463 _174_
*464 _175_
*465 _176_
*466 _177_
*467 _178_
*468 _179_
*469 _180_
*470 _181_
*471 _182_
*472 _183_
*473 _184_
*474 _185_
*475 _186_
*476 _187_
*477 _188_
*478 _189_
*479 _190_
*480 _191_
*481 _192_
*482 blinkEnabled
*483 clknet_0_clk
*484 clknet_1_0_0_clk
*485 clknet_1_1_0_clk
*486 clknet_2_0_0_clk
*487 clknet_2_1_0_clk
*488 clknet_2_2_0_clk
*489 clknet_2_3_0_clk
*490 ctr\.counter\[0\]
*491 ctr\.counter\[10\]
*492 ctr\.counter\[11\]
*493 ctr\.counter\[12\]
*494 ctr\.counter\[13\]
*495 ctr\.counter\[14\]
*496 ctr\.counter\[15\]
*497 ctr\.counter\[16\]
*498 ctr\.counter\[17\]
*499 ctr\.counter\[18\]
*500 ctr\.counter\[19\]
*501 ctr\.counter\[1\]
*502 ctr\.counter\[20\]
*503 ctr\.counter\[21\]
*504 ctr\.counter\[22\]
*505 ctr\.counter\[23\]
*506 ctr\.counter\[24\]
*507 ctr\.counter\[25\]
*508 ctr\.counter\[26\]
*509 ctr\.counter\[27\]
*510 ctr\.counter\[2\]
*511 ctr\.counter\[3\]
*512 ctr\.counter\[4\]
*513 ctr\.counter\[5\]
*514 ctr\.counter\[6\]
*515 ctr\.counter\[7\]
*516 ctr\.counter\[8\]
*517 ctr\.counter\[9\]
*518 net1
*519 net10
*520 net100
*521 net101
*522 net102
*523 net103
*524 net104
*525 net105
*526 net106
*527 net107
*528 net108
*529 net109
*530 net11
*531 net110
*532 net111
*533 net112
*534 net113
*535 net114
*536 net115
*537 net116
*538 net117
*539 net118
*540 net119
*541 net12
*542 net120
*543 net121
*544 net122
*545 net123
*546 net124
*547 net125
*548 net126
*549 net127
*550 net128
*551 net129
*552 net13
*553 net130
*554 net131
*555 net132
*556 net133
*557 net134
*558 net135
*559 net136
*560 net137
*561 net138
*562 net139
*563 net14
*564 net140
*565 net141
*566 net142
*567 net143
*568 net144
*569 net145
*570 net146
*571 net147
*572 net148
*573 net149
*574 net15
*575 net150
*576 net151
*577 net152
*578 net153
*579 net154
*580 net155
*581 net156
*582 net157
*583 net158
*584 net159
*585 net16
*586 net160
*587 net161
*588 net162
*589 net163
*590 net164
*591 net165
*592 net166
*593 net167
*594 net168
*595 net169
*596 net17
*597 net170
*598 net171
*599 net172
*600 net173
*601 net174
*602 net175
*603 net176
*604 net177
*605 net178
*606 net179
*607 net18
*608 net180
*609 net181
*610 net182
*611 net183
*612 net184
*613 net185
*614 net186
*615 net187
*616 net188
*617 net189
*618 net19
*619 net190
*620 net191
*621 net192
*622 net193
*623 net194
*624 net195
*625 net196
*626 net197
*627 net198
*628 net199
*629 net2
*630 net20
*631 net200
*632 net201
*633 net202
*634 net203
*635 net204
*636 net205
*637 net206
*638 net207
*639 net208
*640 net209
*641 net21
*642 net210
*643 net211
*644 net212
*645 net213
*646 net214
*647 net215
*648 net216
*649 net217
*650 net218
*651 net219
*652 net22
*653 net220
*654 net221
*655 net222
*656 net223
*657 net224
*658 net225
*659 net226
*660 net227
*661 net228
*662 net229
*663 net23
*664 net230
*665 net231
*666 net232
*667 net233
*668 net234
*669 net235
*670 net236
*671 net237
*672 net238
*673 net239
*674 net24
*675 net240
*676 net241
*677 net242
*678 net243
*679 net244
*680 net245
*681 net246
*682 net247
*683 net248
*684 net249
*685 net25
*686 net250
*687 net251
*688 net252
*689 net253
*690 net254
*691 net255
*692 net256
*693 net257
*694 net258
*695 net259
*696 net26
*697 net260
*698 net261
*699 net262
*700 net263
*701 net264
*702 net265
*703 net266
*704 net267
*705 net268
*706 net269
*707 net27
*708 net270
*709 net271
*710 net272
*711 net273
*712 net274
*713 net275
*714 net276
*715 net277
*716 net278
*717 net279
*718 net28
*719 net29
*720 net3
*721 net30
*722 net31
*723 net32
*724 net33
*725 net34
*726 net35
*727 net36
*728 net37
*729 net38
*730 net39
*731 net4
*732 net40
*733 net41
*734 net42
*735 net43
*736 net44
*737 net45
*738 net46
*739 net47
*740 net48
*741 net49
*742 net5
*743 net50
*744 net51
*745 net52
*746 net53
*747 net54
*748 net55
*749 net56
*750 net57
*751 net58
*752 net59
*753 net6
*754 net60
*755 net61
*756 net62
*757 net63
*758 net64
*759 net65
*760 net66
*761 net67
*762 net68
*763 net69
*764 net7
*765 net70
*766 net71
*767 net72
*768 net73
*769 net74
*770 net75
*771 net76
*772 net77
*773 net78
*774 net79
*775 net8
*776 net80
*777 net81
*778 net82
*779 net83
*780 net84
*781 net85
*782 net86
*783 net87
*784 net88
*785 net89
*786 net9
*787 net90
*788 net91
*789 net92
*790 net93
*791 net94
*792 net95
*793 net96
*794 net97
*795 net98
*796 net99
*797 ANTENNA__193__A_N
*798 ANTENNA__193__B
*799 ANTENNA__195__B
*800 ANTENNA__197__B
*801 ANTENNA__199__B
*802 ANTENNA__201__B
*803 ANTENNA__205__A
*804 ANTENNA__207__A
*805 ANTENNA__209__A
*806 ANTENNA__210__B
*807 ANTENNA__212__B
*808 ANTENNA__214__A_N
*809 ANTENNA__214__B
*810 ANTENNA__216__A_N
*811 ANTENNA__216__B
*812 ANTENNA__218__A_N
*813 ANTENNA__218__B
*814 ANTENNA__220__A_N
*815 ANTENNA__220__B
*816 ANTENNA__222__B
*817 ANTENNA__224__B
*818 ANTENNA__225__A
*819 ANTENNA__226__B
*820 ANTENNA__227__A
*821 ANTENNA__228__B
*822 ANTENNA__229__A
*823 ANTENNA__231__B
*824 ANTENNA__233__B
*825 ANTENNA__235__B
*826 ANTENNA__237__B
*827 ANTENNA__239__A_N
*828 ANTENNA__239__B
*829 ANTENNA__240__A
*830 ANTENNA__241__B
*831 ANTENNA__242__A
*832 ANTENNA__243__B
*833 ANTENNA__244__A
*834 ANTENNA__245__A_N
*835 ANTENNA__245__B
*836 ANTENNA__246__A
*837 ANTENNA__247__B
*838 ANTENNA__249__A_N
*839 ANTENNA__250__A
*840 ANTENNA__251__S
*841 ANTENNA__252__A
*842 ANTENNA__253__A0
*843 ANTENNA__255__A0
*844 ANTENNA__257__A0
*845 ANTENNA__259__A0
*846 ANTENNA__262__A0
*847 ANTENNA__264__A0
*848 ANTENNA__268__A0
*849 ANTENNA__271__A
*850 ANTENNA__273__A
*851 ANTENNA__274__A0
*852 ANTENNA__274__S
*853 ANTENNA__276__A0
*854 ANTENNA__278__A0
*855 ANTENNA__280__A0
*856 ANTENNA__280__S
*857 ANTENNA__282__A0
*858 ANTENNA__284__A_N
*859 ANTENNA__285__A
*860 ANTENNA__286__A0
*861 ANTENNA__286__S
*862 ANTENNA__289__A
*863 ANTENNA__291__A
*864 ANTENNA__293__A
*865 ANTENNA__297__A0
*866 ANTENNA__299__A0
*867 ANTENNA__301__B
*868 ANTENNA__303__A0
*869 ANTENNA__305__B
*870 ANTENNA__307__A0
*871 ANTENNA__311__S
*872 ANTENNA__313__S
*873 ANTENNA__315__S
*874 ANTENNA__317__A_N
*875 ANTENNA__318__A
*876 ANTENNA__322__A
*877 ANTENNA__323__A_N
*878 ANTENNA__324__A
*879 ANTENNA__325__B
*880 ANTENNA__327__B
*881 ANTENNA__342__A
*882 ANTENNA__343__B1
*883 ANTENNA__345__B1
*884 ANTENNA__349__A
*885 ANTENNA__350__A
*886 ANTENNA__351__B
*887 ANTENNA__353__B
*888 ANTENNA__355__B
*889 ANTENNA__356__A
*890 ANTENNA__357__B
*891 ANTENNA__358__A
*892 ANTENNA__359__B
*893 ANTENNA__360__A
*894 ANTENNA__361__B
*895 ANTENNA__362__A
*896 ANTENNA__363__B
*897 ANTENNA__364__A
*898 ANTENNA__366__A
*899 ANTENNA__367__A
*900 ANTENNA__367__B
*901 ANTENNA__368__A
*902 ANTENNA__369__B
*903 ANTENNA__370__A
*904 ANTENNA__371__B
*905 ANTENNA__372__A
*906 ANTENNA__373__A
*907 ANTENNA__373__B
*908 ANTENNA__374__A
*909 ANTENNA__377__A
*910 ANTENNA__377__B
*911 ANTENNA__378__A
*912 ANTENNA__380__A
*913 ANTENNA__382__A
*914 ANTENNA__384__A
*915 ANTENNA__386__A
*916 ANTENNA__387__B
*917 ANTENNA__389__B
*918 ANTENNA__391__B
*919 ANTENNA__393__B
*920 ANTENNA__397__A
*921 ANTENNA__399__A
*922 ANTENNA__401__A
*923 ANTENNA__403__A
*924 ANTENNA__404__A
*925 ANTENNA__405__B1
*926 ANTENNA__407__A
*927 ANTENNA__408__A
*928 ANTENNA__409__B1
*929 ANTENNA__413__A
*930 ANTENNA__414__A
*931 ANTENNA__416__A
*932 ANTENNA__418__B1
*933 ANTENNA__422__A
*934 ANTENNA__423__A
*935 ANTENNA__433__B1_N
*936 ANTENNA__437__C1
*937 ANTENNA__440__A
*938 ANTENNA__448__B1
*939 ANTENNA__451__A
*940 ANTENNA__452__A
*941 ANTENNA__454__A
*942 ANTENNA__457__A
*943 ANTENNA__460__A
*944 ANTENNA__462__B1
*945 ANTENNA__466__A
*946 ANTENNA__468__A
*947 ANTENNA__470__B1
*948 ANTENNA__474__A
*949 ANTENNA__475__A
*950 ANTENNA__477__B1
*951 ANTENNA__479__CLK
*952 ANTENNA__480__CLK
*953 ANTENNA__481__CLK
*954 ANTENNA__482__CLK
*955 ANTENNA__483__CLK
*956 ANTENNA__484__CLK
*957 ANTENNA__485__CLK
*958 ANTENNA__486__CLK
*959 ANTENNA__487__CLK
*960 ANTENNA__488__CLK
*961 ANTENNA__489__CLK
*962 ANTENNA__490__CLK
*963 ANTENNA__491__CLK
*964 ANTENNA__492__CLK
*965 ANTENNA__493__CLK
*966 ANTENNA__494__CLK
*967 ANTENNA__495__CLK
*968 ANTENNA__496__CLK
*969 ANTENNA__497__CLK
*970 ANTENNA__498__CLK
*971 ANTENNA__499__CLK
*972 ANTENNA__500__CLK
*973 ANTENNA__501__CLK
*974 ANTENNA__502__CLK
*975 ANTENNA__503__CLK
*976 ANTENNA__504__CLK
*977 ANTENNA__505__CLK
*978 ANTENNA__506__CLK
*979 ANTENNA__507__CLK
*980 ANTENNA__508__CLK
*981 ANTENNA__509__CLK
*982 ANTENNA__516__A
*983 ANTENNA__517__A
*984 ANTENNA__518__A
*985 ANTENNA__519__A
*986 ANTENNA__520__A
*987 ANTENNA__521__A
*988 ANTENNA__522__A
*989 ANTENNA__523__A
*990 ANTENNA__524__A
*991 ANTENNA__525__A
*992 ANTENNA__526__A
*993 ANTENNA__527__A
*994 ANTENNA__530__A
*995 ANTENNA__535__A
*996 ANTENNA__536__A
*997 ANTENNA_clkbuf_0_clk_A
*998 ANTENNA_clkbuf_1_0_0_clk_A
*999 ANTENNA_clkbuf_1_1_0_clk_A
*1000 ANTENNA_input100_A
*1001 ANTENNA_input101_A
*1002 ANTENNA_input102_A
*1003 ANTENNA_input103_A
*1004 ANTENNA_input104_A
*1005 ANTENNA_input105_A
*1006 ANTENNA_input106_A
*1007 ANTENNA_input107_A
*1008 ANTENNA_input108_A
*1009 ANTENNA_input109_A
*1010 ANTENNA_input10_A
*1011 ANTENNA_input110_A
*1012 ANTENNA_input111_A
*1013 ANTENNA_input112_A
*1014 ANTENNA_input113_A
*1015 ANTENNA_input114_A
*1016 ANTENNA_input115_A
*1017 ANTENNA_input116_A
*1018 ANTENNA_input117_A
*1019 ANTENNA_input118_A
*1020 ANTENNA_input119_A
*1021 ANTENNA_input11_A
*1022 ANTENNA_input120_A
*1023 ANTENNA_input121_A
*1024 ANTENNA_input122_A
*1025 ANTENNA_input123_A
*1026 ANTENNA_input124_A
*1027 ANTENNA_input125_A
*1028 ANTENNA_input126_A
*1029 ANTENNA_input127_A
*1030 ANTENNA_input128_A
*1031 ANTENNA_input129_A
*1032 ANTENNA_input12_A
*1033 ANTENNA_input130_A
*1034 ANTENNA_input131_A
*1035 ANTENNA_input132_A
*1036 ANTENNA_input133_A
*1037 ANTENNA_input134_A
*1038 ANTENNA_input135_A
*1039 ANTENNA_input136_A
*1040 ANTENNA_input137_A
*1041 ANTENNA_input138_A
*1042 ANTENNA_input139_A
*1043 ANTENNA_input13_A
*1044 ANTENNA_input140_A
*1045 ANTENNA_input141_A
*1046 ANTENNA_input142_A
*1047 ANTENNA_input143_A
*1048 ANTENNA_input144_A
*1049 ANTENNA_input145_A
*1050 ANTENNA_input146_A
*1051 ANTENNA_input147_A
*1052 ANTENNA_input148_A
*1053 ANTENNA_input149_A
*1054 ANTENNA_input14_A
*1055 ANTENNA_input150_A
*1056 ANTENNA_input151_A
*1057 ANTENNA_input152_A
*1058 ANTENNA_input153_A
*1059 ANTENNA_input154_A
*1060 ANTENNA_input155_A
*1061 ANTENNA_input156_A
*1062 ANTENNA_input157_A
*1063 ANTENNA_input158_A
*1064 ANTENNA_input159_A
*1065 ANTENNA_input15_A
*1066 ANTENNA_input160_A
*1067 ANTENNA_input161_A
*1068 ANTENNA_input162_A
*1069 ANTENNA_input163_A
*1070 ANTENNA_input16_A
*1071 ANTENNA_input17_A
*1072 ANTENNA_input18_A
*1073 ANTENNA_input19_A
*1074 ANTENNA_input1_A
*1075 ANTENNA_input20_A
*1076 ANTENNA_input21_A
*1077 ANTENNA_input22_A
*1078 ANTENNA_input23_A
*1079 ANTENNA_input24_A
*1080 ANTENNA_input25_A
*1081 ANTENNA_input26_A
*1082 ANTENNA_input27_A
*1083 ANTENNA_input28_A
*1084 ANTENNA_input29_A
*1085 ANTENNA_input2_A
*1086 ANTENNA_input30_A
*1087 ANTENNA_input31_A
*1088 ANTENNA_input32_A
*1089 ANTENNA_input33_A
*1090 ANTENNA_input34_A
*1091 ANTENNA_input35_A
*1092 ANTENNA_input36_A
*1093 ANTENNA_input37_A
*1094 ANTENNA_input38_A
*1095 ANTENNA_input39_A
*1096 ANTENNA_input3_A
*1097 ANTENNA_input40_A
*1098 ANTENNA_input41_A
*1099 ANTENNA_input42_A
*1100 ANTENNA_input43_A
*1101 ANTENNA_input44_A
*1102 ANTENNA_input45_A
*1103 ANTENNA_input46_A
*1104 ANTENNA_input47_A
*1105 ANTENNA_input48_A
*1106 ANTENNA_input49_A
*1107 ANTENNA_input4_A
*1108 ANTENNA_input50_A
*1109 ANTENNA_input51_A
*1110 ANTENNA_input52_A
*1111 ANTENNA_input53_A
*1112 ANTENNA_input54_A
*1113 ANTENNA_input55_A
*1114 ANTENNA_input56_A
*1115 ANTENNA_input57_A
*1116 ANTENNA_input58_A
*1117 ANTENNA_input59_A
*1118 ANTENNA_input5_A
*1119 ANTENNA_input60_A
*1120 ANTENNA_input61_A
*1121 ANTENNA_input62_A
*1122 ANTENNA_input63_A
*1123 ANTENNA_input64_A
*1124 ANTENNA_input65_A
*1125 ANTENNA_input66_A
*1126 ANTENNA_input67_A
*1127 ANTENNA_input68_A
*1128 ANTENNA_input69_A
*1129 ANTENNA_input6_A
*1130 ANTENNA_input70_A
*1131 ANTENNA_input71_A
*1132 ANTENNA_input72_A
*1133 ANTENNA_input73_A
*1134 ANTENNA_input74_A
*1135 ANTENNA_input75_A
*1136 ANTENNA_input76_A
*1137 ANTENNA_input77_A
*1138 ANTENNA_input78_A
*1139 ANTENNA_input79_A
*1140 ANTENNA_input7_A
*1141 ANTENNA_input80_A
*1142 ANTENNA_input81_A
*1143 ANTENNA_input82_A
*1144 ANTENNA_input83_A
*1145 ANTENNA_input84_A
*1146 ANTENNA_input85_A
*1147 ANTENNA_input86_A
*1148 ANTENNA_input87_A
*1149 ANTENNA_input88_A
*1150 ANTENNA_input89_A
*1151 ANTENNA_input8_A
*1152 ANTENNA_input90_A
*1153 ANTENNA_input91_A
*1154 ANTENNA_input92_A
*1155 ANTENNA_input93_A
*1156 ANTENNA_input94_A
*1157 ANTENNA_input95_A
*1158 ANTENNA_input96_A
*1159 ANTENNA_input97_A
*1160 ANTENNA_input98_A
*1161 ANTENNA_input99_A
*1162 ANTENNA_input9_A
*1163 ANTENNA_output164_A
*1164 ANTENNA_output175_A
*1165 ANTENNA_output185_A
*1166 ANTENNA_output198_A
*1167 ANTENNA_output199_A
*1168 ANTENNA_output204_A
*1169 ANTENNA_output209_A
*1170 ANTENNA_output210_A
*1171 ANTENNA_output211_A
*1172 ANTENNA_output223_A
*1173 ANTENNA_output224_A
*1174 ANTENNA_output225_A
*1175 ANTENNA_output226_A
*1176 ANTENNA_output227_A
*1177 ANTENNA_output228_A
*1178 ANTENNA_output229_A
*1179 ANTENNA_output230_A
*1180 ANTENNA_output231_A
*1181 ANTENNA_output232_A
*1182 ANTENNA_output233_A
*1183 ANTENNA_output238_A
*1184 ANTENNA_output242_A
*1185 ANTENNA_output243_A
*1186 ANTENNA_output244_A
*1187 ANTENNA_output245_A
*1188 ANTENNA_output246_A
*1189 ANTENNA_output247_A
*1190 ANTENNA_output248_A
*1191 ANTENNA_output249_A
*1192 ANTENNA_output252_A
*1193 ANTENNA_output253_A
*1194 ANTENNA_output254_A
*1195 ANTENNA_output255_A
*1196 ANTENNA_output256_A
*1197 ANTENNA_output261_A
*1198 ANTENNA_output262_A
*1199 ANTENNA_output263_A
*1200 ANTENNA_output264_A
*1201 ANTENNA_output265_A
*1202 ANTENNA_output266_A
*1203 ANTENNA_output267_A
*1204 ANTENNA_output268_A
*1205 ANTENNA_output270_A
*1206 ANTENNA_output271_A
*1207 ANTENNA_output272_A
*1208 ANTENNA_output273_A
*1209 ANTENNA_output274_A
*1210 ANTENNA_output275_A
*1211 ANTENNA_output276_A
*1212 ANTENNA_output277_A
*1213 FILLER_0_106
*1214 FILLER_0_113
*1215 FILLER_0_121
*1216 FILLER_0_129
*1217 FILLER_0_13
*1218 FILLER_0_135
*1219 FILLER_0_139
*1220 FILLER_0_145
*1221 FILLER_0_149
*1222 FILLER_0_154
*1223 FILLER_0_158
*1224 FILLER_0_163
*1225 FILLER_0_167
*1226 FILLER_0_173
*1227 FILLER_0_181
*1228 FILLER_0_185
*1229 FILLER_0_190
*1230 FILLER_0_197
*1231 FILLER_0_205
*1232 FILLER_0_21
*1233 FILLER_0_213
*1234 FILLER_0_217
*1235 FILLER_0_220
*1236 FILLER_0_227
*1237 FILLER_0_241
*1238 FILLER_0_248
*1239 FILLER_0_263
*1240 FILLER_0_27
*1241 FILLER_0_271
*1242 FILLER_0_276
*1243 FILLER_0_281
*1244 FILLER_0_289
*1245 FILLER_0_297
*1246 FILLER_0_304
*1247 FILLER_0_309
*1248 FILLER_0_321
*1249 FILLER_0_329
*1250 FILLER_0_33
*1251 FILLER_0_335
*1252 FILLER_0_337
*1253 FILLER_0_348
*1254 FILLER_0_360
*1255 FILLER_0_369
*1256 FILLER_0_377
*1257 FILLER_0_388
*1258 FILLER_0_403
*1259 FILLER_0_47
*1260 FILLER_0_55
*1261 FILLER_0_67
*1262 FILLER_0_75
*1263 FILLER_0_83
*1264 FILLER_0_85
*1265 FILLER_0_98
*1266 FILLER_10_109
*1267 FILLER_10_117
*1268 FILLER_10_129
*1269 FILLER_10_137
*1270 FILLER_10_141
*1271 FILLER_10_15
*1272 FILLER_10_153
*1273 FILLER_10_165
*1274 FILLER_10_177
*1275 FILLER_10_189
*1276 FILLER_10_195
*1277 FILLER_10_197
*1278 FILLER_10_21
*1279 FILLER_10_211
*1280 FILLER_10_223
*1281 FILLER_10_235
*1282 FILLER_10_24
*1283 FILLER_10_247
*1284 FILLER_10_251
*1285 FILLER_10_253
*1286 FILLER_10_257
*1287 FILLER_10_261
*1288 FILLER_10_273
*1289 FILLER_10_285
*1290 FILLER_10_29
*1291 FILLER_10_297
*1292 FILLER_10_3
*1293 FILLER_10_305
*1294 FILLER_10_309
*1295 FILLER_10_317
*1296 FILLER_10_329
*1297 FILLER_10_333
*1298 FILLER_10_342
*1299 FILLER_10_354
*1300 FILLER_10_362
*1301 FILLER_10_365
*1302 FILLER_10_370
*1303 FILLER_10_376
*1304 FILLER_10_386
*1305 FILLER_10_394
*1306 FILLER_10_403
*1307 FILLER_10_41
*1308 FILLER_10_53
*1309 FILLER_10_65
*1310 FILLER_10_77
*1311 FILLER_10_83
*1312 FILLER_10_85
*1313 FILLER_10_97
*1314 FILLER_11_109
*1315 FILLER_11_119
*1316 FILLER_11_125
*1317 FILLER_11_137
*1318 FILLER_11_149
*1319 FILLER_11_15
*1320 FILLER_11_161
*1321 FILLER_11_167
*1322 FILLER_11_169
*1323 FILLER_11_181
*1324 FILLER_11_193
*1325 FILLER_11_201
*1326 FILLER_11_207
*1327 FILLER_11_216
*1328 FILLER_11_22
*1329 FILLER_11_225
*1330 FILLER_11_237
*1331 FILLER_11_241
*1332 FILLER_11_244
*1333 FILLER_11_254
*1334 FILLER_11_260
*1335 FILLER_11_266
*1336 FILLER_11_278
*1337 FILLER_11_281
*1338 FILLER_11_293
*1339 FILLER_11_3
*1340 FILLER_11_30
*1341 FILLER_11_305
*1342 FILLER_11_317
*1343 FILLER_11_329
*1344 FILLER_11_335
*1345 FILLER_11_345
*1346 FILLER_11_35
*1347 FILLER_11_354
*1348 FILLER_11_366
*1349 FILLER_11_374
*1350 FILLER_11_377
*1351 FILLER_11_383
*1352 FILLER_11_391
*1353 FILLER_11_393
*1354 FILLER_11_397
*1355 FILLER_11_403
*1356 FILLER_11_47
*1357 FILLER_11_55
*1358 FILLER_11_62
*1359 FILLER_11_68
*1360 FILLER_11_80
*1361 FILLER_11_92
*1362 FILLER_11_97
*1363 FILLER_12_103
*1364 FILLER_12_115
*1365 FILLER_12_127
*1366 FILLER_12_139
*1367 FILLER_12_141
*1368 FILLER_12_153
*1369 FILLER_12_165
*1370 FILLER_12_177
*1371 FILLER_12_189
*1372 FILLER_12_195
*1373 FILLER_12_197
*1374 FILLER_12_205
*1375 FILLER_12_208
*1376 FILLER_12_21
*1377 FILLER_12_218
*1378 FILLER_12_224
*1379 FILLER_12_236
*1380 FILLER_12_248
*1381 FILLER_12_261
*1382 FILLER_12_27
*1383 FILLER_12_272
*1384 FILLER_12_278
*1385 FILLER_12_290
*1386 FILLER_12_3
*1387 FILLER_12_302
*1388 FILLER_12_309
*1389 FILLER_12_31
*1390 FILLER_12_321
*1391 FILLER_12_333
*1392 FILLER_12_345
*1393 FILLER_12_357
*1394 FILLER_12_363
*1395 FILLER_12_374
*1396 FILLER_12_381
*1397 FILLER_12_387
*1398 FILLER_12_39
*1399 FILLER_12_393
*1400 FILLER_12_396
*1401 FILLER_12_403
*1402 FILLER_12_43
*1403 FILLER_12_53
*1404 FILLER_12_65
*1405 FILLER_12_77
*1406 FILLER_12_83
*1407 FILLER_12_85
*1408 FILLER_12_94
*1409 FILLER_13_108
*1410 FILLER_13_113
*1411 FILLER_13_125
*1412 FILLER_13_133
*1413 FILLER_13_137
*1414 FILLER_13_146
*1415 FILLER_13_15
*1416 FILLER_13_158
*1417 FILLER_13_166
*1418 FILLER_13_169
*1419 FILLER_13_177
*1420 FILLER_13_189
*1421 FILLER_13_201
*1422 FILLER_13_213
*1423 FILLER_13_221
*1424 FILLER_13_225
*1425 FILLER_13_237
*1426 FILLER_13_249
*1427 FILLER_13_259
*1428 FILLER_13_265
*1429 FILLER_13_27
*1430 FILLER_13_277
*1431 FILLER_13_281
*1432 FILLER_13_293
*1433 FILLER_13_3
*1434 FILLER_13_301
*1435 FILLER_13_306
*1436 FILLER_13_317
*1437 FILLER_13_329
*1438 FILLER_13_335
*1439 FILLER_13_337
*1440 FILLER_13_349
*1441 FILLER_13_361
*1442 FILLER_13_373
*1443 FILLER_13_385
*1444 FILLER_13_39
*1445 FILLER_13_391
*1446 FILLER_13_393
*1447 FILLER_13_403
*1448 FILLER_13_51
*1449 FILLER_13_55
*1450 FILLER_13_57
*1451 FILLER_13_69
*1452 FILLER_13_81
*1453 FILLER_13_93
*1454 FILLER_13_96
*1455 FILLER_14_109
*1456 FILLER_14_121
*1457 FILLER_14_133
*1458 FILLER_14_139
*1459 FILLER_14_141
*1460 FILLER_14_15
*1461 FILLER_14_151
*1462 FILLER_14_157
*1463 FILLER_14_165
*1464 FILLER_14_175
*1465 FILLER_14_184
*1466 FILLER_14_190
*1467 FILLER_14_197
*1468 FILLER_14_209
*1469 FILLER_14_21
*1470 FILLER_14_221
*1471 FILLER_14_233
*1472 FILLER_14_245
*1473 FILLER_14_251
*1474 FILLER_14_253
*1475 FILLER_14_265
*1476 FILLER_14_27
*1477 FILLER_14_277
*1478 FILLER_14_289
*1479 FILLER_14_29
*1480 FILLER_14_3
*1481 FILLER_14_300
*1482 FILLER_14_309
*1483 FILLER_14_321
*1484 FILLER_14_333
*1485 FILLER_14_345
*1486 FILLER_14_357
*1487 FILLER_14_363
*1488 FILLER_14_365
*1489 FILLER_14_377
*1490 FILLER_14_389
*1491 FILLER_14_401
*1492 FILLER_14_41
*1493 FILLER_14_49
*1494 FILLER_14_56
*1495 FILLER_14_68
*1496 FILLER_14_80
*1497 FILLER_14_85
*1498 FILLER_14_97
*1499 FILLER_15_105
*1500 FILLER_15_111
*1501 FILLER_15_113
*1502 FILLER_15_119
*1503 FILLER_15_123
*1504 FILLER_15_135
*1505 FILLER_15_147
*1506 FILLER_15_15
*1507 FILLER_15_159
*1508 FILLER_15_167
*1509 FILLER_15_169
*1510 FILLER_15_179
*1511 FILLER_15_191
*1512 FILLER_15_203
*1513 FILLER_15_215
*1514 FILLER_15_223
*1515 FILLER_15_225
*1516 FILLER_15_237
*1517 FILLER_15_249
*1518 FILLER_15_261
*1519 FILLER_15_27
*1520 FILLER_15_273
*1521 FILLER_15_279
*1522 FILLER_15_281
*1523 FILLER_15_289
*1524 FILLER_15_292
*1525 FILLER_15_3
*1526 FILLER_15_304
*1527 FILLER_15_316
*1528 FILLER_15_328
*1529 FILLER_15_337
*1530 FILLER_15_349
*1531 FILLER_15_361
*1532 FILLER_15_373
*1533 FILLER_15_381
*1534 FILLER_15_388
*1535 FILLER_15_39
*1536 FILLER_15_397
*1537 FILLER_15_405
*1538 FILLER_15_44
*1539 FILLER_15_57
*1540 FILLER_15_69
*1541 FILLER_15_81
*1542 FILLER_15_93
*1543 FILLER_16_109
*1544 FILLER_16_12
*1545 FILLER_16_121
*1546 FILLER_16_130
*1547 FILLER_16_138
*1548 FILLER_16_141
*1549 FILLER_16_153
*1550 FILLER_16_165
*1551 FILLER_16_177
*1552 FILLER_16_185
*1553 FILLER_16_188
*1554 FILLER_16_197
*1555 FILLER_16_20
*1556 FILLER_16_209
*1557 FILLER_16_221
*1558 FILLER_16_229
*1559 FILLER_16_241
*1560 FILLER_16_249
*1561 FILLER_16_253
*1562 FILLER_16_265
*1563 FILLER_16_277
*1564 FILLER_16_283
*1565 FILLER_16_29
*1566 FILLER_16_291
*1567 FILLER_16_298
*1568 FILLER_16_3
*1569 FILLER_16_306
*1570 FILLER_16_309
*1571 FILLER_16_321
*1572 FILLER_16_333
*1573 FILLER_16_345
*1574 FILLER_16_351
*1575 FILLER_16_363
*1576 FILLER_16_365
*1577 FILLER_16_377
*1578 FILLER_16_389
*1579 FILLER_16_395
*1580 FILLER_16_403
*1581 FILLER_16_41
*1582 FILLER_16_53
*1583 FILLER_16_65
*1584 FILLER_16_77
*1585 FILLER_16_83
*1586 FILLER_16_85
*1587 FILLER_16_9
*1588 FILLER_16_97
*1589 FILLER_17_101
*1590 FILLER_17_109
*1591 FILLER_17_113
*1592 FILLER_17_125
*1593 FILLER_17_131
*1594 FILLER_17_143
*1595 FILLER_17_15
*1596 FILLER_17_155
*1597 FILLER_17_167
*1598 FILLER_17_169
*1599 FILLER_17_177
*1600 FILLER_17_186
*1601 FILLER_17_196
*1602 FILLER_17_202
*1603 FILLER_17_21
*1604 FILLER_17_214
*1605 FILLER_17_222
*1606 FILLER_17_225
*1607 FILLER_17_233
*1608 FILLER_17_245
*1609 FILLER_17_257
*1610 FILLER_17_269
*1611 FILLER_17_277
*1612 FILLER_17_281
*1613 FILLER_17_289
*1614 FILLER_17_29
*1615 FILLER_17_299
*1616 FILLER_17_3
*1617 FILLER_17_311
*1618 FILLER_17_315
*1619 FILLER_17_322
*1620 FILLER_17_332
*1621 FILLER_17_337
*1622 FILLER_17_349
*1623 FILLER_17_361
*1624 FILLER_17_373
*1625 FILLER_17_385
*1626 FILLER_17_391
*1627 FILLER_17_393
*1628 FILLER_17_405
*1629 FILLER_17_41
*1630 FILLER_17_53
*1631 FILLER_17_57
*1632 FILLER_17_69
*1633 FILLER_17_81
*1634 FILLER_17_93
*1635 FILLER_17_97
*1636 FILLER_18_100
*1637 FILLER_18_112
*1638 FILLER_18_124
*1639 FILLER_18_136
*1640 FILLER_18_141
*1641 FILLER_18_15
*1642 FILLER_18_153
*1643 FILLER_18_165
*1644 FILLER_18_177
*1645 FILLER_18_189
*1646 FILLER_18_192
*1647 FILLER_18_202
*1648 FILLER_18_216
*1649 FILLER_18_222
*1650 FILLER_18_228
*1651 FILLER_18_240
*1652 FILLER_18_253
*1653 FILLER_18_265
*1654 FILLER_18_27
*1655 FILLER_18_277
*1656 FILLER_18_289
*1657 FILLER_18_29
*1658 FILLER_18_293
*1659 FILLER_18_3
*1660 FILLER_18_305
*1661 FILLER_18_309
*1662 FILLER_18_321
*1663 FILLER_18_331
*1664 FILLER_18_343
*1665 FILLER_18_355
*1666 FILLER_18_363
*1667 FILLER_18_365
*1668 FILLER_18_37
*1669 FILLER_18_377
*1670 FILLER_18_389
*1671 FILLER_18_401
*1672 FILLER_18_49