*SPEF "ieee 1481-1999"
*DESIGN "IOMultiplexer"
*DATE "11:11:11 Fri 11 11, 1111"
*VENDOR "OpenRCX"
*PROGRAM "Parallel Extraction"
*VERSION "1.0"
*DESIGN_FLOW "NAME_SCOPE LOCAL" "PIN_CAP NONE"
*DIVIDER /
*DELIMITER :
*BUS_DELIMITER []
*T_UNIT 1 NS
*C_UNIT 1 PF
*R_UNIT 1 OHM
*L_UNIT 1 HENRY

*NAME_MAP
*1 clk
*2 config_address[0]
*3 config_address[10]
*4 config_address[11]
*5 config_address[12]
*6 config_address[13]
*7 config_address[14]
*8 config_address[15]
*9 config_address[16]
*10 config_address[17]
*11 config_address[18]
*12 config_address[19]
*13 config_address[1]
*14 config_address[20]
*15 config_address[21]
*16 config_address[22]
*17 config_address[23]
*18 config_address[24]
*19 config_address[25]
*20 config_address[26]
*21 config_address[27]
*22 config_address[28]
*23 config_address[29]
*24 config_address[2]
*25 config_address[30]
*26 config_address[31]
*27 config_address[3]
*28 config_address[4]
*29 config_address[5]
*30 config_address[6]
*31 config_address[7]
*32 config_address[8]
*33 config_address[9]
*34 config_data[0]
*35 config_data[10]
*36 config_data[11]
*37 config_data[12]
*38 config_data[13]
*39 config_data[14]
*40 config_data[15]
*41 config_data[16]
*42 config_data[17]
*43 config_data[18]
*44 config_data[19]
*45 config_data[1]
*46 config_data[20]
*47 config_data[21]
*48 config_data[22]
*49 config_data[23]
*50 config_data[24]
*51 config_data[25]
*52 config_data[26]
*53 config_data[27]
*54 config_data[28]
*55 config_data[29]
*56 config_data[2]
*57 config_data[30]
*58 config_data[31]
*59 config_data[3]
*60 config_data[4]
*61 config_data[5]
*62 config_data[6]
*63 config_data[7]
*64 config_data[8]
*65 config_data[9]
*66 config_oe
*67 config_we
*68 gpio0_input[0]
*69 gpio0_input[10]
*70 gpio0_input[11]
*71 gpio0_input[12]
*72 gpio0_input[13]
*73 gpio0_input[14]
*74 gpio0_input[15]
*75 gpio0_input[16]
*76 gpio0_input[17]
*77 gpio0_input[18]
*78 gpio0_input[1]
*79 gpio0_input[2]
*80 gpio0_input[3]
*81 gpio0_input[4]
*82 gpio0_input[5]
*83 gpio0_input[6]
*84 gpio0_input[7]
*85 gpio0_input[8]
*86 gpio0_input[9]
*87 gpio0_oe[0]
*88 gpio0_oe[10]
*89 gpio0_oe[11]
*90 gpio0_oe[12]
*91 gpio0_oe[13]
*92 gpio0_oe[14]
*93 gpio0_oe[15]
*94 gpio0_oe[16]
*95 gpio0_oe[17]
*96 gpio0_oe[18]
*97 gpio0_oe[1]
*98 gpio0_oe[2]
*99 gpio0_oe[3]
*100 gpio0_oe[4]
*101 gpio0_oe[5]
*102 gpio0_oe[6]
*103 gpio0_oe[7]
*104 gpio0_oe[8]
*105 gpio0_oe[9]
*106 gpio0_output[0]
*107 gpio0_output[10]
*108 gpio0_output[11]
*109 gpio0_output[12]
*110 gpio0_output[13]
*111 gpio0_output[14]
*112 gpio0_output[15]
*113 gpio0_output[16]
*114 gpio0_output[17]
*115 gpio0_output[18]
*116 gpio0_output[1]
*117 gpio0_output[2]
*118 gpio0_output[3]
*119 gpio0_output[4]
*120 gpio0_output[5]
*121 gpio0_output[6]
*122 gpio0_output[7]
*123 gpio0_output[8]
*124 gpio0_output[9]
*125 gpio1_input[0]
*126 gpio1_input[10]
*127 gpio1_input[11]
*128 gpio1_input[12]
*129 gpio1_input[13]
*130 gpio1_input[14]
*131 gpio1_input[15]
*132 gpio1_input[16]
*133 gpio1_input[17]
*134 gpio1_input[18]
*135 gpio1_input[1]
*136 gpio1_input[2]
*137 gpio1_input[3]
*138 gpio1_input[4]
*139 gpio1_input[5]
*140 gpio1_input[6]
*141 gpio1_input[7]
*142 gpio1_input[8]
*143 gpio1_input[9]
*144 gpio1_oe[0]
*145 gpio1_oe[10]
*146 gpio1_oe[11]
*147 gpio1_oe[12]
*148 gpio1_oe[13]
*149 gpio1_oe[14]
*150 gpio1_oe[15]
*151 gpio1_oe[16]
*152 gpio1_oe[17]
*153 gpio1_oe[18]
*154 gpio1_oe[1]
*155 gpio1_oe[2]
*156 gpio1_oe[3]
*157 gpio1_oe[4]
*158 gpio1_oe[5]
*159 gpio1_oe[6]
*160 gpio1_oe[7]
*161 gpio1_oe[8]
*162 gpio1_oe[9]
*163 gpio1_output[0]
*164 gpio1_output[10]
*165 gpio1_output[11]
*166 gpio1_output[12]
*167 gpio1_output[13]
*168 gpio1_output[14]
*169 gpio1_output[15]
*170 gpio1_output[16]
*171 gpio1_output[17]
*172 gpio1_output[18]
*173 gpio1_output[1]
*174 gpio1_output[2]
*175 gpio1_output[3]
*176 gpio1_output[4]
*177 gpio1_output[5]
*178 gpio1_output[6]
*179 gpio1_output[7]
*180 gpio1_output[8]
*181 gpio1_output[9]
*182 io_in[0]
*183 io_in[10]
*184 io_in[11]
*185 io_in[12]
*186 io_in[13]
*187 io_in[14]
*188 io_in[15]
*189 io_in[16]
*190 io_in[17]
*191 io_in[18]
*192 io_in[19]
*193 io_in[1]
*194 io_in[20]
*195 io_in[21]
*196 io_in[22]
*197 io_in[23]
*198 io_in[24]
*199 io_in[25]
*200 io_in[26]
*201 io_in[27]
*202 io_in[28]
*203 io_in[29]
*204 io_in[2]
*205 io_in[30]
*206 io_in[31]
*207 io_in[32]
*208 io_in[33]
*209 io_in[34]
*210 io_in[35]
*211 io_in[36]
*212 io_in[37]
*213 io_in[3]
*214 io_in[4]
*215 io_in[5]
*216 io_in[6]
*217 io_in[7]
*218 io_in[8]
*219 io_in[9]
*220 io_oeb[0]
*221 io_oeb[10]
*222 io_oeb[11]
*223 io_oeb[12]
*224 io_oeb[13]
*225 io_oeb[14]
*226 io_oeb[15]
*227 io_oeb[16]
*228 io_oeb[17]
*229 io_oeb[18]
*230 io_oeb[19]
*231 io_oeb[1]
*232 io_oeb[20]
*233 io_oeb[21]
*234 io_oeb[22]
*235 io_oeb[23]
*236 io_oeb[24]
*237 io_oeb[25]
*238 io_oeb[26]
*239 io_oeb[27]
*240 io_oeb[28]
*241 io_oeb[29]
*242 io_oeb[2]
*243 io_oeb[30]
*244 io_oeb[31]
*245 io_oeb[32]
*246 io_oeb[33]
*247 io_oeb[34]
*248 io_oeb[35]
*249 io_oeb[36]
*250 io_oeb[37]
*251 io_oeb[3]
*252 io_oeb[4]
*253 io_oeb[5]
*254 io_oeb[6]
*255 io_oeb[7]
*256 io_oeb[8]
*257 io_oeb[9]
*258 io_out[0]
*259 io_out[10]
*260 io_out[11]
*261 io_out[12]
*262 io_out[13]
*263 io_out[14]
*264 io_out[15]
*265 io_out[16]
*266 io_out[17]
*267 io_out[18]
*268 io_out[19]
*269 io_out[1]
*270 io_out[20]
*271 io_out[21]
*272 io_out[22]
*273 io_out[23]
*274 io_out[24]
*275 io_out[25]
*276 io_out[26]
*277 io_out[27]
*278 io_out[28]
*279 io_out[29]
*280 io_out[2]
*281 io_out[30]
*282 io_out[31]
*283 io_out[32]
*284 io_out[33]
*285 io_out[34]
*286 io_out[35]
*287 io_out[36]
*288 io_out[37]
*289 io_out[3]
*290 io_out[4]
*291 io_out[5]
*292 io_out[6]
*293 io_out[7]
*294 io_out[8]
*295 io_out[9]
*296 la_blink[0]
*297 la_blink[1]
*298 pwm_out[0]
*299 pwm_out[10]
*300 pwm_out[11]
*301 pwm_out[12]
*302 pwm_out[13]
*303 pwm_out[14]
*304 pwm_out[15]
*305 pwm_out[1]
*306 pwm_out[2]
*307 pwm_out[3]
*308 pwm_out[4]
*309 pwm_out[5]
*310 pwm_out[6]
*311 pwm_out[7]
*312 pwm_out[8]
*313 pwm_out[9]
*314 rst
*315 spi_clk[0]
*316 spi_clk[1]
*317 spi_cs[0]
*318 spi_cs[1]
*319 net287
*320 net288
*321 spi_mosi[0]
*322 spi_mosi[1]
*323 net289
*324 net290
*325 net291
*326 net292
*327 uart_tx[0]
*328 uart_tx[1]
*329 uart_tx[2]
*330 uart_tx[3]
*333 _0000_
*334 _0001_
*335 _0002_
*336 _0003_
*337 _0004_
*338 _0005_
*339 _0006_
*340 _0007_
*341 _0008_
*342 _0009_
*343 _0010_
*344 _0011_
*345 _0012_
*346 _0013_
*347 _0014_
*348 _0015_
*349 _0016_
*350 _0017_
*351 _0018_
*352 _0019_
*353 _0020_
*354 _0021_
*355 _0022_
*356 _0023_
*357 _0024_
*358 _0025_
*359 _0026_
*360 _0027_
*361 _0028_
*362 _0029_
*363 _0030_
*364 _0031_
*365 _0032_
*366 _0033_
*367 _0034_
*368 _0035_
*369 _0036_
*370 _0037_
*371 _0038_
*372 _0039_
*373 _0040_
*374 _0041_
*375 _0042_
*376 _0043_
*377 _0044_
*378 _0045_
*379 _0046_
*380 _0047_
*381 _0048_
*382 _0049_
*383 _0050_
*384 _0051_
*385 _0052_
*386 _0053_
*387 _0054_
*388 _0055_
*389 _0056_
*390 _0057_
*391 _0058_
*392 _0059_
*393 _0060_
*394 _0061_
*395 _0062_
*396 _0063_
*397 _0064_
*398 _0065_
*399 _0066_
*400 _0067_
*401 _0068_
*402 _0069_
*403 _0070_
*404 _0071_
*405 _0072_
*406 _0073_
*407 _0074_
*408 _0075_
*409 _0076_
*410 _0077_
*411 _0078_
*412 _0079_
*413 _0080_
*414 _0081_
*415 _0082_
*416 _0083_
*417 _0084_
*418 _0085_
*419 _0086_
*420 _0087_
*421 _0088_
*422 _0089_
*423 _0090_
*424 _0091_
*425 _0092_
*426 _0093_
*427 _0094_
*428 _0095_
*429 _0096_
*430 _0097_
*431 _0098_
*432 _0099_
*433 _0100_
*434 _0101_
*435 _0102_
*436 _0103_
*437 _0104_
*438 _0105_
*439 _0106_
*440 _0107_
*441 _0108_
*442 _0109_
*443 _0110_
*444 _0111_
*445 _0112_
*446 _0113_
*447 _0114_
*448 _0115_
*449 _0116_
*450 _0117_
*451 _0118_
*452 _0119_
*453 _0120_
*454 _0121_
*455 _0122_
*456 _0123_
*457 _0124_
*458 _0125_
*459 _0126_
*460 _0127_
*461 _0128_
*462 _0129_
*463 _0130_
*464 _0131_
*465 _0132_
*466 _0133_
*467 _0134_
*468 _0135_
*469 _0136_
*470 _0137_
*471 _0138_
*472 _0139_
*473 _0140_
*474 _0141_
*475 _0142_
*476 _0143_
*477 _0144_
*478 _0145_
*479 _0146_
*480 _0147_
*481 _0148_
*482 _0149_
*483 _0150_
*484 _0151_
*485 _0152_
*486 _0153_
*487 _0154_
*488 _0155_
*489 _0156_
*490 _0157_
*491 _0158_
*492 _0159_
*493 _0160_
*494 _0161_
*495 _0162_
*496 _0163_
*497 _0164_
*498 _0165_
*499 _0166_
*500 _0167_
*501 _0168_
*502 _0169_
*503 _0170_
*504 _0171_
*505 _0172_
*506 _0173_
*507 _0174_
*508 _0175_
*509 _0176_
*510 _0177_
*511 _0178_
*512 _0179_
*513 _0180_
*514 _0181_
*515 _0182_
*516 _0183_
*517 _0184_
*518 _0185_
*519 _0186_
*520 _0187_
*521 _0188_
*522 _0189_
*523 _0190_
*524 _0191_
*525 _0192_
*526 _0193_
*527 _0194_
*528 _0195_
*529 _0196_
*530 _0197_
*531 _0198_
*532 _0199_
*533 _0200_
*534 _0201_
*535 _0202_
*536 _0203_
*537 _0204_
*538 _0205_
*539 _0206_
*540 _0207_
*541 _0208_
*542 _0209_
*543 _0210_
*544 _0211_
*545 _0212_
*546 _0213_
*547 _0214_
*548 _0215_
*549 _0216_
*550 _0217_
*551 _0218_
*552 _0219_
*553 _0220_
*554 _0221_
*555 _0222_
*556 _0223_
*557 _0224_
*558 _0225_
*559 _0226_
*560 _0227_
*561 _0228_
*562 _0229_
*563 _0230_
*564 _0231_
*565 _0232_
*566 _0233_
*567 _0234_
*568 _0235_
*569 _0236_
*570 _0237_
*571 _0238_
*572 _0239_
*573 _0240_
*574 _0241_
*575 _0242_
*576 _0243_
*577 _0244_
*578 _0245_
*579 _0246_
*580 _0247_
*581 _0248_
*582 _0249_
*583 _0250_
*584 _0251_
*585 _0252_
*586 _0253_
*587 _0254_
*588 _0255_
*589 _0256_
*590 _0257_
*591 _0258_
*592 _0259_
*593 _0260_
*594 _0261_
*595 _0262_
*596 _0263_
*597 _0264_
*598 _0265_
*599 _0266_
*600 _0267_
*601 _0268_
*602 _0269_
*603 _0270_
*604 _0271_
*605 _0272_
*606 _0273_
*607 _0274_
*608 _0275_
*609 _0276_
*610 _0277_
*611 _0278_
*612 _0279_
*613 _0280_
*614 _0281_
*615 _0282_
*616 _0283_
*617 _0284_
*618 _0285_
*619 _0286_
*620 _0287_
*621 _0288_
*622 _0289_
*623 _0290_
*624 _0291_
*625 _0292_
*626 _0293_
*627 _0294_
*628 _0295_
*629 _0296_
*630 _0297_
*631 _0298_
*632 _0299_
*633 _0300_
*634 _0301_
*635 _0302_
*636 _0303_
*637 _0304_
*638 _0305_
*639 _0306_
*640 _0307_
*641 _0308_
*642 _0309_
*643 _0310_
*644 _0311_
*645 _0312_
*646 _0313_
*647 _0314_
*648 _0315_
*649 _0316_
*650 _0317_
*651 _0318_
*652 _0319_
*653 _0320_
*654 _0321_
*655 _0322_
*656 _0323_
*657 _0324_
*658 _0325_
*659 _0326_
*660 _0327_
*661 _0328_
*662 _0329_
*663 _0330_
*664 _0331_
*665 _0332_
*666 _0333_
*667 _0334_
*668 _0335_
*669 _0336_
*670 _0337_
*671 _0338_
*672 _0339_
*673 _0340_
*674 _0341_
*675 _0342_
*676 _0343_
*677 _0344_
*678 _0345_
*679 _0346_
*680 _0347_
*681 _0348_
*682 _0349_
*683 _0350_
*684 _0351_
*685 _0352_
*686 _0353_
*687 _0354_
*688 _0355_
*689 _0356_
*690 _0357_
*691 _0358_
*692 _0359_
*693 _0360_
*694 _0361_
*695 _0362_
*696 _0363_
*697 _0364_
*698 _0365_
*699 _0366_
*700 _0367_
*701 _0368_
*702 _0369_
*703 _0370_
*704 _0371_
*705 _0372_
*706 _0373_
*707 _0374_
*708 _0375_
*709 _0376_
*710 _0377_
*711 _0378_
*712 _0379_
*713 _0380_
*714 _0381_
*715 _0382_
*716 _0383_
*717 _0384_
*718 _0385_
*719 _0386_
*720 _0387_
*721 _0388_
*722 _0389_
*723 _0390_
*724 _0391_
*725 _0392_
*726 _0393_
*727 _0394_
*728 _0395_
*729 _0396_
*730 blinkEnabled
*731 clknet_0_clk
*732 clknet_1_0_0_clk
*733 clknet_1_1_0_clk
*734 clknet_2_0_0_clk
*735 clknet_2_1_0_clk
*736 clknet_2_2_0_clk
*737 clknet_2_3_0_clk
*738 clknet_3_0_0_clk
*739 clknet_3_1_0_clk
*740 clknet_3_2_0_clk
*741 clknet_3_3_0_clk
*742 clknet_3_4_0_clk
*743 clknet_3_5_0_clk
*744 clknet_3_6_0_clk
*745 clknet_3_7_0_clk
*746 configurationRegister\.currentValue\[0\]
*747 configurationRegister\.currentValue\[10\]
*748 configurationRegister\.currentValue\[11\]
*749 configurationRegister\.currentValue\[12\]
*750 configurationRegister\.currentValue\[13\]
*751 configurationRegister\.currentValue\[14\]
*752 configurationRegister\.currentValue\[15\]
*753 configurationRegister\.currentValue\[16\]
*754 configurationRegister\.currentValue\[17\]
*755 configurationRegister\.currentValue\[18\]
*756 configurationRegister\.currentValue\[19\]
*757 configurationRegister\.currentValue\[1\]
*758 configurationRegister\.currentValue\[20\]
*759 configurationRegister\.currentValue\[21\]
*760 configurationRegister\.currentValue\[22\]
*761 configurationRegister\.currentValue\[23\]
*762 configurationRegister\.currentValue\[24\]
*763 configurationRegister\.currentValue\[25\]
*764 configurationRegister\.currentValue\[26\]
*765 configurationRegister\.currentValue\[27\]
*766 configurationRegister\.currentValue\[28\]
*767 configurationRegister\.currentValue\[29\]
*768 configurationRegister\.currentValue\[2\]
*769 configurationRegister\.currentValue\[30\]
*770 configurationRegister\.currentValue\[31\]
*771 configurationRegister\.currentValue\[3\]
*772 configurationRegister\.currentValue\[4\]
*773 configurationRegister\.currentValue\[5\]
*774 configurationRegister\.currentValue\[6\]
*775 configurationRegister\.currentValue\[7\]
*776 configurationRegister\.currentValue\[8\]
*777 configurationRegister\.currentValue\[9\]
*778 ctr\.counter\[0\]
*779 ctr\.counter\[10\]
*780 ctr\.counter\[11\]
*781 ctr\.counter\[12\]
*782 ctr\.counter\[13\]
*783 ctr\.counter\[14\]
*784 ctr\.counter\[15\]
*785 ctr\.counter\[16\]
*786 ctr\.counter\[17\]
*787 ctr\.counter\[18\]
*788 ctr\.counter\[19\]
*789 ctr\.counter\[1\]
*790 ctr\.counter\[20\]
*791 ctr\.counter\[21\]
*792 ctr\.counter\[22\]
*793 ctr\.counter\[23\]
*794 ctr\.counter\[24\]
*795 ctr\.counter\[2\]
*796 ctr\.counter\[3\]
*797 ctr\.counter\[4\]
*798 ctr\.counter\[5\]
*799 ctr\.counter\[6\]
*800 ctr\.counter\[7\]
*801 ctr\.counter\[8\]
*802 ctr\.counter\[9\]
*803 net1
*804 net10
*805 net100
*806 net101
*807 net102
*808 net103
*809 net104
*810 net105
*811 net106
*812 net107
*813 net108
*814 net109
*815 net11
*816 net110
*817 net111
*818 net112
*819 net113
*820 net114
*821 net115
*822 net116
*823 net117
*824 net118
*825 net119
*826 net12
*827 net120
*828 net121
*829 net122
*830 net123
*831 net124
*832 net125
*833 net126
*834 net127
*835 net128
*836 net129
*837 net13
*838 net130
*839 net131
*840 net132
*841 net133
*842 net134
*843 net135
*844 net136
*845 net137
*846 net138
*847 net139
*848 net14
*849 net140
*850 net141
*851 net142
*852 net143
*853 net144
*854 net145
*855 net146
*856 net147
*857 net148
*858 net149
*859 net15
*860 net150
*861 net151
*862 net152
*863 net153
*864 net154
*865 net155
*866 net156
*867 net157
*868 net158
*869 net159
*870 net16
*871 net160
*872 net161
*873 net162
*874 net163
*875 net164
*876 net165
*877 net166
*878 net167
*879 net168
*880 net169
*881 net17
*882 net170
*883 net171
*884 net172
*885 net173
*886 net174
*887 net175
*888 net176
*889 net177
*890 net178
*891 net179
*892 net18
*893 net180
*894 net181
*895 net182
*896 net183
*897 net184
*898 net185
*899 net186
*900 net187
*901 net188
*902 net189
*903 net19
*904 net190
*905 net191
*906 net192
*907 net193
*908 net194
*909 net195
*910 net196
*911 net197
*912 net198
*913 net199
*914 net2
*915 net20
*916 net200
*917 net201
*918 net202
*919 net203
*920 net204
*921 net205
*922 net206
*923 net207
*924 net208
*925 net209
*926 net21
*927 net210
*928 net211
*929 net212
*930 net213
*931 net214
*932 net215
*933 net216
*934 net217
*935 net218
*936 net219
*937 net22
*938 net220
*939 net221
*940 net222
*941 net223
*942 net224
*943 net225
*944 net226
*945 net227
*946 net228
*947 net229
*948 net23
*949 net230
*950 net231
*951 net232
*952 net233
*953 net234
*954 net235
*955 net236
*956 net237
*957 net238
*958 net239
*959 net24
*960 net240
*961 net241
*962 net242
*963 net243
*964 net244
*965 net245
*966 net246
*967 net247
*968 net248
*969 net249
*970 net25
*971 net250
*972 net251
*973 net252
*974 net253
*975 net254
*976 net255
*977 net256
*978 net257
*979 net258
*980 net259
*981 net26
*982 net260
*983 net261
*984 net262
*985 net263
*986 net264
*987 net265
*988 net266
*989 net267
*990 net268
*991 net269
*992 net27
*993 net270
*994 net271
*995 net272
*996 net273
*997 net274
*998 net275
*999 net276
*1000 net277
*1001 net278
*1002 net279
*1003 net28
*1004 net280
*1005 net281
*1006 net282
*1007 net283
*1008 net284
*1009 net285
*1010 net286
*1011 net29
*1012 net3
*1013 net30
*1014 net31
*1015 net32
*1016 net33
*1017 net34
*1018 net35
*1019 net36
*1020 net37
*1021 net38
*1022 net39
*1023 net4
*1024 net40
*1025 net41
*1026 net42
*1027 net43
*1028 net44
*1029 net45
*1030 net46
*1031 net47
*1032 net48
*1033 net49
*1034 net5
*1035 net50
*1036 net51
*1037 net52
*1038 net53
*1039 net54
*1040 net55
*1041 net56
*1042 net57
*1043 net58
*1044 net59
*1045 net6
*1046 net60
*1047 net61
*1048 net62
*1049 net63
*1050 net64
*1051 net65
*1052 net66
*1053 net67
*1054 net68
*1055 net69
*1056 net7
*1057 net70
*1058 net71
*1059 net72
*1060 net73
*1061 net74
*1062 net75
*1063 net76
*1064 net77
*1065 net78
*1066 net79
*1067 net8
*1068 net80
*1069 net81
*1070 net82
*1071 net83
*1072 net84
*1073 net85
*1074 net86
*1075 net87
*1076 net88
*1077 net89
*1078 net9
*1079 net90
*1080 net91
*1081 net92
*1082 net93
*1083 net94
*1084 net95
*1085 net96
*1086 net97
*1087 net98
*1088 net99
*1089 ANTENNA__0398__A
*1090 ANTENNA__0400__A
*1091 ANTENNA__0401__A
*1092 ANTENNA__0407__A
*1093 ANTENNA__0408__A
*1094 ANTENNA__0415__A
*1095 ANTENNA__0416__A
*1096 ANTENNA__0416__B
*1097 ANTENNA__0416__C
*1098 ANTENNA__0416__D
*1099 ANTENNA__0418__A
*1100 ANTENNA__0418__B
*1101 ANTENNA__0418__C
*1102 ANTENNA__0418__D
*1103 ANTENNA__0420__A
*1104 ANTENNA__0420__B
*1105 ANTENNA__0420__C
*1106 ANTENNA__0420__D
*1107 ANTENNA__0422__A
*1108 ANTENNA__0422__B
*1109 ANTENNA__0422__C
*1110 ANTENNA__0422__D
*1111 ANTENNA__0424__A
*1112 ANTENNA__0424__B
*1113 ANTENNA__0424__C
*1114 ANTENNA__0424__D
*1115 ANTENNA__0426__A
*1116 ANTENNA__0427__A
*1117 ANTENNA__0428__A
*1118 ANTENNA__0429__A
*1119 ANTENNA__0430__A
*1120 ANTENNA__0430__B
*1121 ANTENNA__0430__C
*1122 ANTENNA__0430__D
*1123 ANTENNA__0432__A
*1124 ANTENNA__0432__B
*1125 ANTENNA__0432__C
*1126 ANTENNA__0432__D
*1127 ANTENNA__0434__A
*1128 ANTENNA__0434__B
*1129 ANTENNA__0434__C
*1130 ANTENNA__0434__D
*1131 ANTENNA__0436__A
*1132 ANTENNA__0436__B
*1133 ANTENNA__0436__C
*1134 ANTENNA__0436__D
*1135 ANTENNA__0438__A
*1136 ANTENNA__0438__B
*1137 ANTENNA__0438__C
*1138 ANTENNA__0438__D
*1139 ANTENNA__0440__A
*1140 ANTENNA__0441__A
*1141 ANTENNA__0442__A
*1142 ANTENNA__0443__A
*1143 ANTENNA__0444__A
*1144 ANTENNA__0444__B
*1145 ANTENNA__0444__C
*1146 ANTENNA__0444__D
*1147 ANTENNA__0446__A
*1148 ANTENNA__0446__B
*1149 ANTENNA__0446__C
*1150 ANTENNA__0446__D
*1151 ANTENNA__0448__A
*1152 ANTENNA__0448__B
*1153 ANTENNA__0448__C
*1154 ANTENNA__0448__D
*1155 ANTENNA__0450__A
*1156 ANTENNA__0450__B
*1157 ANTENNA__0450__C
*1158 ANTENNA__0450__D
*1159 ANTENNA__0451__A
*1160 ANTENNA__0452__A
*1161 ANTENNA__0452__B
*1162 ANTENNA__0452__C
*1163 ANTENNA__0452__D
*1164 ANTENNA__0455__A
*1165 ANTENNA__0456__A
*1166 ANTENNA__0458__A
*1167 ANTENNA__0458__B
*1168 ANTENNA__0458__C
*1169 ANTENNA__0458__D
*1170 ANTENNA__0460__A
*1171 ANTENNA__0460__B
*1172 ANTENNA__0460__C
*1173 ANTENNA__0460__D
*1174 ANTENNA__0462__A
*1175 ANTENNA__0462__B
*1176 ANTENNA__0462__C
*1177 ANTENNA__0462__D
*1178 ANTENNA__0464__A
*1179 ANTENNA__0464__B
*1180 ANTENNA__0464__C
*1181 ANTENNA__0464__D
*1182 ANTENNA__0466__A
*1183 ANTENNA__0466__B
*1184 ANTENNA__0466__C
*1185 ANTENNA__0466__D
*1186 ANTENNA__0467__A
*1187 ANTENNA__0469__A
*1188 ANTENNA__0470__A
*1189 ANTENNA__0483__A
*1190 ANTENNA__0484__A
*1191 ANTENNA__0496__A
*1192 ANTENNA__0496__B
*1193 ANTENNA__0496__C
*1194 ANTENNA__0496__D
*1195 ANTENNA__0498__A
*1196 ANTENNA__0498__B
*1197 ANTENNA__0498__C
*1198 ANTENNA__0498__D
*1199 ANTENNA__0500__A
*1200 ANTENNA__0500__B
*1201 ANTENNA__0502__A
*1202 ANTENNA__0502__B
*1203 ANTENNA__0504__A
*1204 ANTENNA__0504__B
*1205 ANTENNA__0506__A
*1206 ANTENNA__0506__B
*1207 ANTENNA__0509__A
*1208 ANTENNA__0511__A
*1209 ANTENNA__0513__A
*1210 ANTENNA__0515__A
*1211 ANTENNA__0519__A
*1212 ANTENNA__0526__A
*1213 ANTENNA__0529__A
*1214 ANTENNA__0530__A
*1215 ANTENNA__0531__A
*1216 ANTENNA__0532__A
*1217 ANTENNA__0533__A
*1218 ANTENNA__0534__A
*1219 ANTENNA__0535__A
*1220 ANTENNA__0536__A
*1221 ANTENNA__0537__A_N
*1222 ANTENNA__0537__B
*1223 ANTENNA__0539__A_N
*1224 ANTENNA__0539__B
*1225 ANTENNA__0541__A_N
*1226 ANTENNA__0541__B
*1227 ANTENNA__0543__A_N
*1228 ANTENNA__0543__B
*1229 ANTENNA__0545__B
*1230 ANTENNA__0547__A
*1231 ANTENNA__0548__B
*1232 ANTENNA__0550__B
*1233 ANTENNA__0552__B
*1234 ANTENNA__0554__B
*1235 ANTENNA__0556__A_N
*1236 ANTENNA__0556__B
*1237 ANTENNA__0558__A_N
*1238 ANTENNA__0558__B
*1239 ANTENNA__0560__A_N
*1240 ANTENNA__0560__B
*1241 ANTENNA__0562__A_N
*1242 ANTENNA__0562__B
*1243 ANTENNA__0565__A_N
*1244 ANTENNA__0565__B
*1245 ANTENNA__0566__A
*1246 ANTENNA__0567__A_N
*1247 ANTENNA__0567__B
*1248 ANTENNA__0568__A
*1249 ANTENNA__0569__A_N
*1250 ANTENNA__0569__B
*1251 ANTENNA__0571__A_N
*1252 ANTENNA__0571__B
*1253 ANTENNA__0573__A_N
*1254 ANTENNA__0573__B
*1255 ANTENNA__0574__A
*1256 ANTENNA__0576__B
*1257 ANTENNA__0578__B
*1258 ANTENNA__0580__B
*1259 ANTENNA__0582__A
*1260 ANTENNA__0583__A_N
*1261 ANTENNA__0583__B
*1262 ANTENNA__0584__A
*1263 ANTENNA__0585__A_N
*1264 ANTENNA__0586__A
*1265 ANTENNA__0587__A_N
*1266 ANTENNA__0588__A
*1267 ANTENNA__0589__A_N
*1268 ANTENNA__0590__A
*1269 ANTENNA__0591__A_N
*1270 ANTENNA__0591__B
*1271 ANTENNA__0592__A
*1272 ANTENNA__0593__A_N
*1273 ANTENNA__0594__A
*1274 ANTENNA__0595__A_N
*1275 ANTENNA__0595__B
*1276 ANTENNA__0596__A
*1277 ANTENNA__0597__A0
*1278 ANTENNA__0597__S
*1279 ANTENNA__0599__A0
*1280 ANTENNA__0599__S
*1281 ANTENNA__0601__A0
*1282 ANTENNA__0601__S
*1283 ANTENNA__0602__A
*1284 ANTENNA__0603__A0
*1285 ANTENNA__0603__S
*1286 ANTENNA__0605__A0
*1287 ANTENNA__0605__S
*1288 ANTENNA__0606__A
*1289 ANTENNA__0608__A0
*1290 ANTENNA__0610__B
*1291 ANTENNA__0612__A0
*1292 ANTENNA__0614__A_N
*1293 ANTENNA__0614__B
*1294 ANTENNA__0616__A0
*1295 ANTENNA__0616__S
*1296 ANTENNA__0618__A0
*1297 ANTENNA__0618__S
*1298 ANTENNA__0620__A0
*1299 ANTENNA__0620__S
*1300 ANTENNA__0622__A0
*1301 ANTENNA__0622__S
*1302 ANTENNA__0624__A0
*1303 ANTENNA__0624__S
*1304 ANTENNA__0626__A0
*1305 ANTENNA__0626__A1
*1306 ANTENNA__0626__S
*1307 ANTENNA__0628__A_N
*1308 ANTENNA__0630__S
*1309 ANTENNA__0631__A
*1310 ANTENNA__0632__S
*1311 ANTENNA__0633__A
*1312 ANTENNA__0634__S
*1313 ANTENNA__0635__A
*1314 ANTENNA__0636__S
*1315 ANTENNA__0637__A
*1316 ANTENNA__0639__A
*1317 ANTENNA__0641__A
*1318 ANTENNA__0645__A
*1319 ANTENNA__0648__A1
*1320 ANTENNA__0649__A
*1321 ANTENNA__0650__S
*1322 ANTENNA__0651__A
*1323 ANTENNA__0652__S
*1324 ANTENNA__0653__A
*1325 ANTENNA__0654__S
*1326 ANTENNA__0655__A
*1327 ANTENNA__0656__S
*1328 ANTENNA__0657__A
*1329 ANTENNA__0658__A_N
*1330 ANTENNA__0658__B
*1331 ANTENNA__0659__A
*1332 ANTENNA__0660__B
*1333 ANTENNA__0662__A_N
*1334 ANTENNA__0662__B
*1335 ANTENNA__0664__A_N
*1336 ANTENNA__0670__A
*1337 ANTENNA__0670__B
*1338 ANTENNA__0670__D
*1339 ANTENNA__0671__A
*1340 ANTENNA__0672__D
*1341 ANTENNA__0673__A
*1342 ANTENNA__0674__C
*1343 ANTENNA__0676__A
*1344 ANTENNA__0677__A
*1345 ANTENNA__0677__B
*1346 ANTENNA__0678__C
*1347 ANTENNA__0679__A
*1348 ANTENNA__0681__A
*1349 ANTENNA__0683__A
*1350 ANTENNA__0684__A1
*1351 ANTENNA__0684__B1
*1352 ANTENNA__0686__A1
*1353 ANTENNA__0687__B1
*1354 ANTENNA__0689__A
*1355 ANTENNA__0689__B
*1356 ANTENNA__0690__A
*1357 ANTENNA__0691__A
*1358 ANTENNA__0691__B
*1359 ANTENNA__0692__A
*1360 ANTENNA__0693__A
*1361 ANTENNA__0693__B
*1362 ANTENNA__0694__A
*1363 ANTENNA__0695__A
*1364 ANTENNA__0695__B
*1365 ANTENNA__0697__A
*1366 ANTENNA__0697__B
*1367 ANTENNA__0698__A
*1368 ANTENNA__0699__B
*1369 ANTENNA__0701__B
*1370 ANTENNA__0703__B
*1371 ANTENNA__0705__A
*1372 ANTENNA__0705__B
*1373 ANTENNA__0707__A
*1374 ANTENNA__0707__B
*1375 ANTENNA__0709__A
*1376 ANTENNA__0710__A
*1377 ANTENNA__0711__A1
*1378 ANTENNA__0711__B1
*1379 ANTENNA__0712__A
*1380 ANTENNA__0713__B
*1381 ANTENNA__0714__A
*1382 ANTENNA__0715__A1
*1383 ANTENNA__0715__B1
*1384 ANTENNA__0716__A1
*1385 ANTENNA__0717__A
*1386 ANTENNA__0718__A1
*1387 ANTENNA__0719__A
*1388 ANTENNA__0721__A
*1389 ANTENNA__0723__A
*1390 ANTENNA__0723__B
*1391 ANTENNA__0724__A1
*1392 ANTENNA__0725__A1
*1393 ANTENNA__0725__A2
*1394 ANTENNA__0725__B1
*1395 ANTENNA__0726__A1
*1396 ANTENNA__0726__A2
*1397 ANTENNA__0727__A
*1398 ANTENNA__0727__B
*1399 ANTENNA__0728__A1
*1400 ANTENNA__0728__A2
*1401 ANTENNA__0729__A
*1402 ANTENNA__0729__B
*1403 ANTENNA__0729__C
*1404 ANTENNA__0730__A
*1405 ANTENNA__0731__C
*1406 ANTENNA__0732__A
*1407 ANTENNA__0733__A2
*1408 ANTENNA__0734__A
*1409 ANTENNA__0734__B
*1410 ANTENNA__0736__B
*1411 ANTENNA__0737__A
*1412 ANTENNA__0737__B
*1413 ANTENNA__0738__A2
*1414 ANTENNA__0739__A1
*1415 ANTENNA__0739__A2
*1416 ANTENNA__0739__B1
*1417 ANTENNA__0740__A1
*1418 ANTENNA__0740__A2
*1419 ANTENNA__0741__B
*1420 ANTENNA__0742__A1
*1421 ANTENNA__0742__A2
*1422 ANTENNA__0743__A
*1423 ANTENNA__0743__B
*1424 ANTENNA__0743__C
*1425 ANTENNA__0745__A
*1426 ANTENNA__0745__B
*1427 ANTENNA__0746__A2
*1428 ANTENNA__0747__A
*1429 ANTENNA__0747__B
*1430 ANTENNA__0748__A
*1431 ANTENNA__0748__B
*1432 ANTENNA__0749__A1
*1433 ANTENNA__0749__A2
*1434 ANTENNA__0750__A
*1435 ANTENNA__0751__A
*1436 ANTENNA__0751__C
*1437 ANTENNA__0752__A
*1438 ANTENNA__0753__A2
*1439 ANTENNA__0754__A
*1440 ANTENNA__0754__B
*1441 ANTENNA__0755__A
*1442 ANTENNA__0758__A
*1443 ANTENNA__0758__B
*1444 ANTENNA__0760__A1
*1445 ANTENNA__0760__A2
*1446 ANTENNA__0760__B1
*1447 ANTENNA__0761__A1
*1448 ANTENNA__0761__A2
*1449 ANTENNA__0762__A
*1450 ANTENNA__0762__B
*1451 ANTENNA__0762__C
*1452 ANTENNA__0763__A1
*1453 ANTENNA__0763__A2
*1454 ANTENNA__0763__B1
*1455 ANTENNA__0764__A
*1456 ANTENNA__0765__A
*1457 ANTENNA__0765__B
*1458 ANTENNA__0767__A2
*1459 ANTENNA__0767__B1
*1460 ANTENNA__0768__A2
*1461 ANTENNA__0769__A2
*1462 ANTENNA__0770__A
*1463 ANTENNA__0770__B
*1464 ANTENNA__0771__A1
*1465 ANTENNA__0771__A2
*1466 ANTENNA__0771__B1
*1467 ANTENNA__0772__A1
*1468 ANTENNA__0772__A2
*1469 ANTENNA__0773__A1
*1470 ANTENNA__0774__A
*1471 ANTENNA__0775__B
*1472 ANTENNA__0776__A
*1473 ANTENNA__0777__A
*1474 ANTENNA__0778__A0
*1475 ANTENNA__0779__A_N
*1476 ANTENNA__0781__A
*1477 ANTENNA__0782__A1
*1478 ANTENNA__0788__A1
*1479 ANTENNA__0794__A
*1480 ANTENNA__0795__A1
*1481 ANTENNA__0798__A
*1482 ANTENNA__0799__A1
*1483 ANTENNA__0800__A_N
*1484 ANTENNA__0802__A1
*1485 ANTENNA__0803__A_N
*1486 ANTENNA__0805__A1
*1487 ANTENNA__0806__A_N
*1488 ANTENNA__0808__A1
*1489 ANTENNA__0809__A_N
*1490 ANTENNA__0811__A
*1491 ANTENNA__0812__A1
*1492 ANTENNA__0812__S
*1493 ANTENNA__0813__A_N
*1494 ANTENNA__0815__A
*1495 ANTENNA__0816__A1
*1496 ANTENNA__0816__S
*1497 ANTENNA__0817__A_N
*1498 ANTENNA__0817__B
*1499 ANTENNA__0819__A0
*1500 ANTENNA__0819__A1
*1501 ANTENNA__0819__S
*1502 ANTENNA__0820__A_N
*1503 ANTENNA__0822__A1
*1504 ANTENNA__0822__S
*1505 ANTENNA__0823__A_N
*1506 ANTENNA__0825__A0
*1507 ANTENNA__0825__A1
*1508 ANTENNA__0825__S
*1509 ANTENNA__0826__A_N
*1510 ANTENNA__0828__A
*1511 ANTENNA__0829__A1
*1512 ANTENNA__0829__S
*1513 ANTENNA__0830__A_N
*1514 ANTENNA__0830__B
*1515 ANTENNA__0832__A
*1516 ANTENNA__0833__A0
*1517 ANTENNA__0833__A1
*1518 ANTENNA__0833__S
*1519 ANTENNA__0834__A_N
*1520 ANTENNA__0835__A
*1521 ANTENNA__0836__A0
*1522 ANTENNA__0836__S
*1523 ANTENNA__0837__A_N
*1524 ANTENNA__0839__A1
*1525 ANTENNA__0839__S
*1526 ANTENNA__0840__A_N
*1527 ANTENNA__0842__A0
*1528 ANTENNA__0842__A1
*1529 ANTENNA__0842__S
*1530 ANTENNA__0843__A_N
*1531 ANTENNA__0845__A
*1532 ANTENNA__0846__A0
*1533 ANTENNA__0846__A1
*1534 ANTENNA__0847__A_N
*1535 ANTENNA__0849__A
*1536 ANTENNA__0850__A0
*1537 ANTENNA__0850__A1
*1538 ANTENNA__0859__A0
*1539 ANTENNA__0862__A
*1540 ANTENNA__0863__A0
*1541 ANTENNA__0866__A
*1542 ANTENNA__0867__A0
*1543 ANTENNA__0870__A0
*1544 ANTENNA__0873__A0
*1545 ANTENNA__0876__A0
*1546 ANTENNA__0879__A0
*1547 ANTENNA__0879__S
*1548 ANTENNA__0882__A0
*1549 ANTENNA__0882__S
*1550 ANTENNA__0883__A_N
*1551 ANTENNA__0918__D
*1552 ANTENNA__0927__D
*1553 ANTENNA__0951__A
*1554 ANTENNA__0952__A
*1555 ANTENNA__0953__A
*1556 ANTENNA__0954__A
*1557 ANTENNA__0955__A
*1558 ANTENNA__0956__A
*1559 ANTENNA__0957__A
*1560 ANTENNA__0958__A
*1561 ANTENNA__0959__A
*1562 ANTENNA__0960__A
*1563 ANTENNA__0961__A
*1564 ANTENNA__0962__A
*1565 ANTENNA__0963__A
*1566 ANTENNA__0964__A
*1567 ANTENNA__0965__A
*1568 ANTENNA__0966__A
*1569 ANTENNA__0967__A
*1570 ANTENNA__0968__A
*1571 ANTENNA__0969__A
*1572 ANTENNA__0970__A
*1573 ANTENNA__0971__A
*1574 ANTENNA__0972__A
*1575 ANTENNA__0973__A
*1576 ANTENNA__0975__A
*1577 ANTENNA__0977__A
*1578 ANTENNA__0979__A
*1579 ANTENNA__0980__A
*1580 ANTENNA__0981__A
*1581 ANTENNA__0982__A
*1582 ANTENNA__0983__A
*1583 ANTENNA__0984__A
*1584 ANTENNA__0985__A
*1585 ANTENNA__0986__A
*1586 ANTENNA__0987__A
*1587 ANTENNA__0988__A
*1588 ANTENNA__0989__A
*1589 ANTENNA__0990__A
*1590 ANTENNA__0992__A
*1591 ANTENNA__0993__A
*1592 ANTENNA__0994__A
*1593 ANTENNA__0995__A
*1594 ANTENNA_clkbuf_0_clk_A
*1595 ANTENNA_clkbuf_2_0_0_clk_A
*1596 ANTENNA_clkbuf_2_1_0_clk_A
*1597 ANTENNA_clkbuf_2_2_0_clk_A
*1598 ANTENNA_clkbuf_2_3_0_clk_A
*1599 ANTENNA_input100_A
*1600 ANTENNA_input101_A
*1601 ANTENNA_input102_A
*1602 ANTENNA_input103_A
*1603 ANTENNA_input104_A
*1604 ANTENNA_input105_A
*1605 ANTENNA_input106_A
*1606 ANTENNA_input107_A
*1607 ANTENNA_input108_A
*1608 ANTENNA_input109_A
*1609 ANTENNA_input10_A
*1610 ANTENNA_input110_A
*1611 ANTENNA_input111_A
*1612 ANTENNA_input112_A
*1613 ANTENNA_input113_A
*1614 ANTENNA_input114_A
*1615 ANTENNA_input115_A
*1616 ANTENNA_input116_A
*1617 ANTENNA_input117_A
*1618 ANTENNA_input118_A
*1619 ANTENNA_input119_A
*1620 ANTENNA_input11_A
*1621 ANTENNA_input120_A
*1622 ANTENNA_input121_A
*1623 ANTENNA_input122_A
*1624 ANTENNA_input123_A
*1625 ANTENNA_input124_A
*1626 ANTENNA_input125_A
*1627 ANTENNA_input126_A
*1628 ANTENNA_input127_A
*1629 ANTENNA_input128_A
*1630 ANTENNA_input129_A
*1631 ANTENNA_input12_A
*1632 ANTENNA_input130_A
*1633 ANTENNA_input131_A
*1634 ANTENNA_input132_A
*1635 ANTENNA_input133_A
*1636 ANTENNA_input134_A
*1637 ANTENNA_input135_A
*1638 ANTENNA_input136_A
*1639 ANTENNA_input137_A
*1640 ANTENNA_input138_A
*1641 ANTENNA_input139_A
*1642 ANTENNA_input13_A
*1643 ANTENNA_input140_A
*1644 ANTENNA_input141_A
*1645 ANTENNA_input142_A
*1646 ANTENNA_input143_A
*1647 ANTENNA_input144_A