*SPEF "ieee 1481-1999"
*DESIGN "SPI"
*DATE "11:11:11 Fri 11 11, 1111"
*VENDOR "OpenRCX"
*PROGRAM "Parallel Extraction"
*VERSION "1.0"
*DESIGN_FLOW "NAME_SCOPE LOCAL" "PIN_CAP NONE"
*DIVIDER /
*DELIMITER :
*BUS_DELIMITER []
*T_UNIT 1 NS
*C_UNIT 1 PF
*R_UNIT 1 OHM
*L_UNIT 1 HENRY

*NAME_MAP
*1 clk
*2 peripheralBus_address[0]
*3 peripheralBus_address[10]
*4 peripheralBus_address[11]
*5 peripheralBus_address[12]
*6 peripheralBus_address[13]
*7 peripheralBus_address[14]
*8 peripheralBus_address[15]
*9 peripheralBus_address[16]
*10 peripheralBus_address[17]
*11 peripheralBus_address[18]
*12 peripheralBus_address[19]
*13 peripheralBus_address[1]
*14 peripheralBus_address[20]
*15 peripheralBus_address[21]
*16 peripheralBus_address[22]
*17 peripheralBus_address[23]
*18 peripheralBus_address[2]
*19 peripheralBus_address[3]
*20 peripheralBus_address[4]
*21 peripheralBus_address[5]
*22 peripheralBus_address[6]
*23 peripheralBus_address[7]
*24 peripheralBus_address[8]
*25 peripheralBus_address[9]
*26 net132
*27 peripheralBus_data[0]
*28 peripheralBus_data[10]
*29 peripheralBus_data[11]
*30 peripheralBus_data[12]
*31 peripheralBus_data[13]
*32 peripheralBus_data[14]
*33 peripheralBus_data[15]
*34 peripheralBus_data[16]
*35 peripheralBus_data[17]
*36 peripheralBus_data[18]
*37 peripheralBus_data[19]
*38 peripheralBus_data[1]
*39 peripheralBus_data[20]
*40 peripheralBus_data[21]
*41 peripheralBus_data[22]
*42 peripheralBus_data[23]
*43 peripheralBus_data[24]
*44 peripheralBus_data[25]
*45 peripheralBus_data[26]
*46 peripheralBus_data[27]
*47 peripheralBus_data[28]
*48 peripheralBus_data[29]
*49 peripheralBus_data[2]
*50 peripheralBus_data[30]
*51 peripheralBus_data[31]
*52 peripheralBus_data[3]
*53 peripheralBus_data[4]
*54 peripheralBus_data[5]
*55 peripheralBus_data[6]
*56 peripheralBus_data[7]
*57 peripheralBus_data[8]
*58 peripheralBus_data[9]
*59 peripheralBus_oe
*60 peripheralBus_we
*61 rst
*62 spi_clk[0]
*63 spi_clk[1]
*64 spi_cs[0]
*65 spi_cs[1]
*66 net133
*67 net134
*68 spi_miso[0]
*69 spi_miso[1]
*70 spi_mosi[0]
*71 spi_mosi[1]
*74 _0000_
*75 _0001_
*76 _0002_
*77 _0003_
*78 _0004_
*79 _0005_
*80 _0006_
*81 _0007_
*82 _0008_
*83 _0009_
*84 _0010_
*85 _0011_
*86 _0012_
*87 _0013_
*88 _0014_
*89 _0015_
*90 _0016_
*91 _0017_
*92 _0018_
*93 _0019_
*94 _0020_
*95 _0021_
*96 _0022_
*97 _0023_
*98 _0024_
*99 _0025_
*100 _0026_
*101 _0027_
*102 _0028_
*103 _0029_
*104 _0030_
*105 _0031_
*106 _0032_
*107 _0033_
*108 _0034_
*109 _0035_
*110 _0036_
*111 _0037_
*112 _0038_
*113 _0039_
*114 _0040_
*115 _0041_
*116 _0042_
*117 _0043_
*118 _0044_
*119 _0045_
*120 _0046_
*121 _0047_
*122 _0048_
*123 _0049_
*124 _0050_
*125 _0051_
*126 _0052_
*127 _0053_
*128 _0054_
*129 _0055_
*130 _0056_
*131 _0057_
*132 _0058_
*133 _0059_
*134 _0060_
*135 _0061_
*136 _0062_
*137 _0063_
*138 _0064_
*139 _0065_
*140 _0066_
*141 _0067_
*142 _0068_
*143 _0069_
*144 _0070_
*145 _0071_
*146 _0072_
*147 _0073_
*148 _0074_
*149 _0075_
*150 _0076_
*151 _0077_
*152 _0078_
*153 _0079_
*154 _0080_
*155 _0081_
*156 _0082_
*157 _0083_
*158 _0084_
*159 _0085_
*160 _0086_
*161 _0087_
*162 _0088_
*163 _0089_
*164 _0090_
*165 _0091_
*166 _0092_
*167 _0093_
*168 _0094_
*169 _0095_
*170 _0096_
*171 _0097_
*172 _0098_
*173 _0099_
*174 _0100_
*175 _0101_
*176 _0102_
*177 _0103_
*178 _0104_
*179 _0105_
*180 _0106_
*181 _0107_
*182 _0108_
*183 _0109_
*184 _0110_
*185 _0111_
*186 _0112_
*187 _0113_
*188 _0114_
*189 _0115_
*190 _0116_
*191 _0117_
*192 _0118_
*193 _0119_
*194 _0120_
*195 _0121_
*196 _0122_
*197 _0123_
*198 _0124_
*199 _0125_
*200 _0126_
*201 _0127_
*202 _0128_
*203 _0129_
*204 _0130_
*205 _0131_
*206 _0132_
*207 _0133_
*208 _0134_
*209 _0135_
*210 _0136_
*211 _0137_
*212 _0138_
*213 _0139_
*214 _0140_
*215 _0141_
*216 _0142_
*217 _0143_
*218 _0144_
*219 _0145_
*220 _0146_
*221 _0147_
*222 _0148_
*223 _0149_
*224 _0150_
*225 _0151_
*226 _0152_
*227 _0153_
*228 _0154_
*229 _0155_
*230 _0156_
*231 _0157_
*232 _0158_
*233 _0159_
*234 _0160_
*235 _0161_
*236 _0162_
*237 _0163_
*238 _0164_
*239 _0165_
*240 _0166_
*241 _0167_
*242 _0168_
*243 _0169_
*244 _0170_
*245 _0171_
*246 _0172_
*247 _0173_
*248 _0174_
*249 _0175_
*250 _0176_
*251 _0177_
*252 _0178_
*253 _0179_
*254 _0180_
*255 _0181_
*256 _0182_
*257 _0183_
*258 _0184_
*259 _0185_
*260 _0186_
*261 _0187_
*262 _0188_
*263 _0189_
*264 _0190_
*265 _0191_
*266 _0192_
*267 _0193_
*268 _0194_
*269 _0195_
*270 _0196_
*271 _0197_
*272 _0198_
*273 _0199_
*274 _0200_
*275 _0201_
*276 _0202_
*277 _0203_
*278 _0204_
*279 _0205_
*280 _0206_
*281 _0207_
*282 _0208_
*283 _0209_
*284 _0210_
*285 _0211_
*286 _0212_
*287 _0213_
*288 _0214_
*289 _0215_
*290 _0216_
*291 _0217_
*292 _0218_
*293 _0219_
*294 _0220_
*295 _0221_
*296 _0222_
*297 _0223_
*298 _0224_
*299 _0225_
*300 _0226_
*301 _0227_
*302 _0228_
*303 _0229_
*304 _0230_
*305 _0231_
*306 _0232_
*307 _0233_
*308 _0234_
*309 _0235_
*310 _0236_
*311 _0237_
*312 _0238_
*313 _0239_
*314 _0240_
*315 _0241_
*316 _0242_
*317 _0243_
*318 _0244_
*319 _0245_
*320 _0246_
*321 _0247_
*322 _0248_
*323 _0249_
*324 _0250_
*325 _0251_
*326 _0252_
*327 _0253_
*328 _0254_
*329 _0255_
*330 _0256_
*331 _0257_
*332 _0258_
*333 _0259_
*334 _0260_
*335 _0261_
*336 _0262_
*337 _0263_
*338 _0264_
*339 _0265_
*340 _0266_
*341 _0267_
*342 _0268_
*343 _0269_
*344 _0270_
*345 _0271_
*346 _0272_
*347 _0273_
*348 _0274_
*349 _0275_
*350 _0276_
*351 _0277_
*352 _0278_
*353 _0279_
*354 _0280_
*355 _0281_
*356 _0282_
*357 _0283_
*358 _0284_
*359 _0285_
*360 _0286_
*361 _0287_
*362 _0288_
*363 _0289_
*364 _0290_
*365 _0291_
*366 _0292_
*367 _0293_
*368 _0294_
*369 _0295_
*370 _0296_
*371 _0297_
*372 _0298_
*373 _0299_
*374 _0300_
*375 _0301_
*376 _0302_
*377 _0303_
*378 _0304_
*379 _0305_
*380 _0306_
*381 _0307_
*382 _0308_
*383 _0309_
*384 _0310_
*385 _0311_
*386 _0312_
*387 _0313_
*388 _0314_
*389 _0315_
*390 _0316_
*391 _0317_
*392 _0318_
*393 _0319_
*394 _0320_
*395 _0321_
*396 _0322_
*397 _0323_
*398 _0324_
*399 _0325_
*400 _0326_
*401 _0327_
*402 _0328_
*403 _0329_
*404 _0330_
*405 _0331_
*406 _0332_
*407 _0333_
*408 _0334_
*409 _0335_
*410 _0336_
*411 _0337_
*412 _0338_
*413 _0339_
*414 _0340_
*415 _0341_
*416 _0342_
*417 _0343_
*418 _0344_
*419 _0345_
*420 _0346_
*421 _0347_
*422 _0348_
*423 _0349_
*424 _0350_
*425 _0351_
*426 _0352_
*427 _0353_
*428 _0354_
*429 _0355_
*430 _0356_
*431 _0357_
*432 _0358_
*433 _0359_
*434 _0360_
*435 _0361_
*436 _0362_
*437 _0363_
*438 _0364_
*439 _0365_
*440 _0366_
*441 _0367_
*442 _0368_
*443 _0369_
*444 _0370_
*445 _0371_
*446 _0372_
*447 _0373_
*448 _0374_
*449 _0375_
*450 _0376_
*451 _0377_
*452 _0378_
*453 _0379_
*454 _0380_
*455 _0381_
*456 _0382_
*457 _0383_
*458 _0384_
*459 _0385_
*460 _0386_
*461 _0387_
*462 _0388_
*463 _0389_
*464 _0390_
*465 _0391_
*466 _0392_
*467 _0393_
*468 _0394_
*469 _0395_
*470 _0396_
*471 _0397_
*472 _0398_
*473 _0399_
*474 _0400_
*475 _0401_
*476 _0402_
*477 _0403_
*478 _0404_
*479 _0405_
*480 _0406_
*481 _0407_
*482 _0408_
*483 _0409_
*484 _0410_
*485 _0411_
*486 _0412_
*487 _0413_
*488 _0414_
*489 _0415_
*490 _0416_
*491 _0417_
*492 _0418_
*493 _0419_
*494 _0420_
*495 _0421_
*496 _0422_
*497 _0423_
*498 _0424_
*499 _0425_
*500 _0426_
*501 _0427_
*502 _0428_
*503 _0429_
*504 _0430_
*505 _0431_
*506 _0432_
*507 _0433_
*508 _0434_
*509 _0435_
*510 _0436_
*511 _0437_
*512 _0438_
*513 _0439_
*514 _0440_
*515 _0441_
*516 _0442_
*517 _0443_
*518 _0444_
*519 _0445_
*520 _0446_
*521 _0447_
*522 _0448_
*523 _0449_
*524 _0450_
*525 _0451_
*526 _0452_
*527 _0453_
*528 _0454_
*529 _0455_
*530 _0456_
*531 _0457_
*532 _0458_
*533 _0459_
*534 _0460_
*535 _0461_
*536 _0462_
*537 _0463_
*538 _0464_
*539 _0465_
*540 _0466_
*541 _0467_
*542 _0468_
*543 _0469_
*544 _0470_
*545 _0471_
*546 _0472_
*547 _0473_
*548 _0474_
*549 _0475_
*550 _0476_
*551 _0477_
*552 _0478_
*553 _0479_
*554 _0480_
*555 _0481_
*556 _0482_
*557 _0483_
*558 _0484_
*559 _0485_
*560 _0486_
*561 _0487_
*562 _0488_
*563 _0489_
*564 _0490_
*565 _0491_
*566 _0492_
*567 _0493_
*568 _0494_
*569 _0495_
*570 _0496_
*571 _0497_
*572 _0498_
*573 _0499_
*574 _0500_
*575 _0501_
*576 _0502_
*577 _0503_
*578 _0504_
*579 _0505_
*580 _0506_
*581 _0507_
*582 _0508_
*583 _0509_
*584 _0510_
*585 _0511_
*586 _0512_
*587 _0513_
*588 _0514_
*589 _0515_
*590 _0516_
*591 _0517_
*592 _0518_
*593 _0519_
*594 _0520_
*595 _0521_
*596 _0522_
*597 _0523_
*598 _0524_
*599 _0525_
*600 _0526_
*601 _0527_
*602 _0528_
*603 _0529_
*604 _0530_
*605 _0531_
*606 _0532_
*607 _0533_
*608 _0534_
*609 _0535_
*610 _0536_
*611 _0537_
*612 _0538_
*613 _0539_
*614 _0540_
*615 _0541_
*616 _0542_
*617 _0543_
*618 _0544_
*619 _0545_
*620 _0546_
*621 _0547_
*622 _0548_
*623 _0549_
*624 _0550_
*625 _0551_
*626 _0552_
*627 _0553_
*628 _0554_
*629 _0555_
*630 _0556_
*631 _0557_
*632 _0558_
*633 _0559_
*634 _0560_
*635 _0561_
*636 _0562_
*637 _0563_
*638 _0564_
*639 _0565_
*640 _0566_
*641 _0567_
*642 _0568_
*643 _0569_
*644 _0570_
*645 _0571_
*646 _0572_
*647 _0573_
*648 _0574_
*649 _0575_
*650 _0576_
*651 _0577_
*652 _0578_
*653 _0579_
*654 _0580_
*655 _0581_
*656 _0582_
*657 _0583_
*658 _0584_
*659 _0585_
*660 _0586_
*661 _0587_
*662 _0588_
*663 _0589_
*664 _0590_
*665 clknet_0_clk
*666 clknet_1_0_0_clk
*667 clknet_1_1_0_clk
*668 clknet_2_0_0_clk
*669 clknet_2_1_0_clk
*670 clknet_2_2_0_clk
*671 clknet_2_3_0_clk
*672 genblk1\[0\]\.device\.activeHighCS
*673 genblk1\[0\]\.device\.clockCounter\[0\]
*674 genblk1\[0\]\.device\.clockScale\[0\]
*675 genblk1\[0\]\.device\.clockScale\[1\]
*676 genblk1\[0\]\.device\.clockScale\[2\]
*677 genblk1\[0\]\.device\.dataRegister\.readData\[0\]
*678 genblk1\[0\]\.device\.dataRegister\.readData\[1\]
*679 genblk1\[0\]\.device\.dataRegister\.readData\[2\]
*680 genblk1\[0\]\.device\.dataRegister\.readData\[3\]
*681 genblk1\[0\]\.device\.dataRegister\.readData\[4\]
*682 genblk1\[0\]\.device\.dataRegister\.readData\[5\]
*683 genblk1\[0\]\.device\.dataRegister\.readData\[6\]
*684 genblk1\[0\]\.device\.dataRegister\.readData\[7\]
*685 genblk1\[0\]\.device\.loadEnable
*686 genblk1\[0\]\.device\.msbFirst
*687 genblk1\[0\]\.device\.spiClockFall
*688 genblk1\[0\]\.device\.spiClockRise
*689 genblk1\[0\]\.device\.spiSampleMode
*690 genblk1\[0\]\.device\.state\[0\]
*691 genblk1\[0\]\.device\.state\[1\]
*692 genblk1\[0\]\.device\.useCS
*693 genblk1\[1\]\.device\.activeHighCS
*694 genblk1\[1\]\.device\.clockCounter\[0\]
*695 genblk1\[1\]\.device\.clockScale\[0\]
*696 genblk1\[1\]\.device\.clockScale\[1\]
*697 genblk1\[1\]\.device\.clockScale\[2\]
*698 genblk1\[1\]\.device\.dataRegister\.readData\[0\]
*699 genblk1\[1\]\.device\.dataRegister\.readData\[1\]
*700 genblk1\[1\]\.device\.dataRegister\.readData\[2\]
*701 genblk1\[1\]\.device\.dataRegister\.readData\[3\]
*702 genblk1\[1\]\.device\.dataRegister\.readData\[4\]
*703 genblk1\[1\]\.device\.dataRegister\.readData\[5\]
*704 genblk1\[1\]\.device\.dataRegister\.readData\[6\]
*705 genblk1\[1\]\.device\.dataRegister\.readData\[7\]
*706 genblk1\[1\]\.device\.loadEnable
*707 genblk1\[1\]\.device\.msbFirst
*708 genblk1\[1\]\.device\.spiClockFall
*709 genblk1\[1\]\.device\.spiClockRise
*710 genblk1\[1\]\.device\.spiSampleMode
*711 genblk1\[1\]\.device\.state\[0\]
*712 genblk1\[1\]\.device\.state\[1\]
*713 genblk1\[1\]\.device\.useCS
*714 net1
*715 net10
*716 net100
*717 net101
*718 net102
*719 net103
*720 net104
*721 net105
*722 net106
*723 net107
*724 net108
*725 net109
*726 net11
*727 net110
*728 net111
*729 net112
*730 net113
*731 net114
*732 net115
*733 net116
*734 net117
*735 net118
*736 net119
*737 net12
*738 net120
*739 net121
*740 net122
*741 net123
*742 net124
*743 net125
*744 net126
*745 net127
*746 net128
*747 net129
*748 net13
*749 net130
*750 net131
*751 net14
*752 net15
*753 net16
*754 net17
*755 net18
*756 net19
*757 net2
*758 net20
*759 net21
*760 net22
*761 net23
*762 net24
*763 net25
*764 net26
*765 net27
*766 net28
*767 net29
*768 net3
*769 net30
*770 net31
*771 net32
*772 net33
*773 net34
*774 net35
*775 net36
*776 net37
*777 net38
*778 net39
*779 net4
*780 net40
*781 net41
*782 net42
*783 net43
*784 net44
*785 net45
*786 net46
*787 net47
*788 net48
*789 net49
*790 net5
*791 net50
*792 net51
*793 net52
*794 net53
*795 net54
*796 net55
*797 net56
*798 net57
*799 net58
*800 net59
*801 net6
*802 net60
*803 net61
*804 net62
*805 net63
*806 net64
*807 net65
*808 net66
*809 net67
*810 net68
*811 net69
*812 net7
*813 net70
*814 net71
*815 net72
*816 net73
*817 net74
*818 net75
*819 net76
*820 net77
*821 net78
*822 net79
*823 net8
*824 net80
*825 net81
*826 net82
*827 net83
*828 net84
*829 net85
*830 net86
*831 net87
*832 net88
*833 net89
*834 net9
*835 net90
*836 net91
*837 net92
*838 net93
*839 net94
*840 net95
*841 net96
*842 net97
*843 net98
*844 net99
*845 ANTENNA__0688__A
*846 ANTENNA__0693__A
*847 ANTENNA__0700__A
*848 ANTENNA__0701__A
*849 ANTENNA__0702__A
*850 ANTENNA__0708__A
*851 ANTENNA__0720__A
*852 ANTENNA__0724__A
*853 ANTENNA__0753__A
*854 ANTENNA__0767__A
*855 ANTENNA__0769__C
*856 ANTENNA__0769__D
*857 ANTENNA__0812__A
*858 ANTENNA__0813__D
*859 ANTENNA__0815__A
*860 ANTENNA__0816__A
*861 ANTENNA__0817__C
*862 ANTENNA__0819__C
*863 ANTENNA__0819__D
*864 ANTENNA__0821__C
*865 ANTENNA__0821__D
*866 ANTENNA__0823__A
*867 ANTENNA__0824__A
*868 ANTENNA__0825__A
*869 ANTENNA__0826__A
*870 ANTENNA__0827__C
*871 ANTENNA__0827__D
*872 ANTENNA__0829__A
*873 ANTENNA__0830__A
*874 ANTENNA__0831__C
*875 ANTENNA__0833__A
*876 ANTENNA__0840__A
*877 ANTENNA__0841__A
*878 ANTENNA__0844__A
*879 ANTENNA__0847__A
*880 ANTENNA__0854__A
*881 ANTENNA__0855__A
*882 ANTENNA__0858__A
*883 ANTENNA__0861__A
*884 ANTENNA__0868__A
*885 ANTENNA__0869__A
*886 ANTENNA__0872__A
*887 ANTENNA__0875__A
*888 ANTENNA__0882__A
*889 ANTENNA__0883__A
*890 ANTENNA__0886__A
*891 ANTENNA__0889__A
*892 ANTENNA__0896__A
*893 ANTENNA__0898__A
*894 ANTENNA__0903__A
*895 ANTENNA__0906__C
*896 ANTENNA__0908__C
*897 ANTENNA__0910__C
*898 ANTENNA__0914__C
*899 ANTENNA__0917__A
*900 ANTENNA__0931__A
*901 ANTENNA__0945__A
*902 ANTENNA__0948__C
*903 ANTENNA__0956__A
*904 ANTENNA__0963__D
*905 ANTENNA__0965__D
*906 ANTENNA__0967__D
*907 ANTENNA__0969__A
*908 ANTENNA__0971__A
*909 ANTENNA__0973__A
*910 ANTENNA__0974__D
*911 ANTENNA__0976__D
*912 ANTENNA__0987__A
*913 ANTENNA__1001__A
*914 ANTENNA__1015__A
*915 ANTENNA__1021__D
*916 ANTENNA__1023__D
*917 ANTENNA__1025__D
*918 ANTENNA__1029__D
*919 ANTENNA__1031__D
*920 ANTENNA__1033__D
*921 ANTENNA__1035__D
*922 ANTENNA__1048__A
*923 ANTENNA__1062__A
*924 ANTENNA__1083__C
*925 ANTENNA__1092__S
*926 ANTENNA__1095__A
*927 ANTENNA__1097__B
*928 ANTENNA__1097__C
*929 ANTENNA__1098__A2
*930 ANTENNA__1099__A
*931 ANTENNA__1102__C1
*932 ANTENNA__1108__A
*933 ANTENNA__1108__B
*934 ANTENNA__1109__C
*935 ANTENNA__1111__B1
*936 ANTENNA__1111__B2
*937 ANTENNA__1114__B1
*938 ANTENNA__1114__B2
*939 ANTENNA__1117__B1
*940 ANTENNA__1117__B2
*941 ANTENNA__1120__B1
*942 ANTENNA__1120__B2
*943 ANTENNA__1123__B2
*944 ANTENNA__1127__B2
*945 ANTENNA__1130__A
*946 ANTENNA__1131__B2
*947 ANTENNA__1134__A0
*948 ANTENNA__1134__A1
*949 ANTENNA__1134__S
*950 ANTENNA__1135__A
*951 ANTENNA__1136__S
*952 ANTENNA__1139__A
*953 ANTENNA__1141__A
*954 ANTENNA__1142__B1
*955 ANTENNA__1145__C
*956 ANTENNA__1146__A
*957 ANTENNA__1147__A0
*958 ANTENNA__1150__A0
*959 ANTENNA__1153__A
*960 ANTENNA__1154__A0
*961 ANTENNA__1154__S
*962 ANTENNA__1155__A
*963 ANTENNA__1157__A0
*964 ANTENNA__1161__A0
*965 ANTENNA__1161__A1
*966 ANTENNA__1162__A
*967 ANTENNA__1164__A0
*968 ANTENNA__1164__A1
*969 ANTENNA__1164__S
*970 ANTENNA__1165__A
*971 ANTENNA__1167__A0
*972 ANTENNA__1167__S
*973 ANTENNA__1168__A
*974 ANTENNA__1170__A0
*975 ANTENNA__1171__A
*976 ANTENNA__1173__A
*977 ANTENNA__1180__B1
*978 ANTENNA__1181__A
*979 ANTENNA__1183__A
*980 ANTENNA__1185__A
*981 ANTENNA__1189__C1
*982 ANTENNA__1190__B
*983 ANTENNA__1191__B1
*984 ANTENNA__1194__B1
*985 ANTENNA__1196__A3
*986 ANTENNA__1197__A
*987 ANTENNA__1199__A1
*988 ANTENNA__1202__B_N
*989 ANTENNA__1202__C
*990 ANTENNA__1204__B2
*991 ANTENNA__1205__A
*992 ANTENNA__1208__B2
*993 ANTENNA__1209__A
*994 ANTENNA__1211__B2
*995 ANTENNA__1212__A
*996 ANTENNA__1214__B2
*997 ANTENNA__1215__A
*998 ANTENNA__1218__B2
*999 ANTENNA__1219__A
*1000 ANTENNA__1221__B2
*1001 ANTENNA__1222__A
*1002 ANTENNA__1224__B2
*1003 ANTENNA__1225__A
*1004 ANTENNA__1227__B2
*1005 ANTENNA__1228__A
*1006 ANTENNA__1233__A0
*1007 ANTENNA__1234__A0
*1008 ANTENNA__1234__A1
*1009 ANTENNA__1236__A
*1010 ANTENNA__1238__A
*1011 ANTENNA__1238__B
*1012 ANTENNA__1238__C
*1013 ANTENNA__1241__C1
*1014 ANTENNA__1242__A
*1015 ANTENNA__1242__B
*1016 ANTENNA__1242__C
*1017 ANTENNA__1243__A
*1018 ANTENNA__1244__C1
*1019 ANTENNA__1246__A1
*1020 ANTENNA__1246__B1
*1021 ANTENNA__1248__A
*1022 ANTENNA__1253__A1
*1023 ANTENNA__1254__A1
*1024 ANTENNA__1254__B1
*1025 ANTENNA__1257__A1
*1026 ANTENNA__1257__C1
*1027 ANTENNA__1259__A1
*1028 ANTENNA__1266__A
*1029 ANTENNA__1268__A
*1030 ANTENNA__1272__A
*1031 ANTENNA__1272__B
*1032 ANTENNA__1272__C
*1033 ANTENNA__1276__B1
*1034 ANTENNA__1279__A
*1035 ANTENNA__1293__CLK
*1036 ANTENNA__1295__CLK
*1037 ANTENNA__1296__CLK
*1038 ANTENNA__1303__CLK
*1039 ANTENNA__1304__CLK
*1040 ANTENNA__1305__CLK
*1041 ANTENNA__1306__CLK
*1042 ANTENNA__1307__CLK
*1043 ANTENNA__1308__CLK
*1044 ANTENNA__1309__CLK
*1045 ANTENNA__1310__CLK
*1046 ANTENNA__1311__CLK
*1047 ANTENNA__1312__CLK
*1048 ANTENNA__1313__CLK
*1049 ANTENNA__1314__CLK
*1050 ANTENNA__1315__CLK
*1051 ANTENNA__1316__CLK
*1052 ANTENNA__1317__CLK
*1053 ANTENNA__1318__CLK
*1054 ANTENNA__1319__CLK
*1055 ANTENNA__1320__CLK
*1056 ANTENNA__1321__CLK
*1057 ANTENNA__1322__CLK
*1058 ANTENNA__1323__CLK
*1059 ANTENNA__1324__CLK
*1060 ANTENNA__1325__CLK
*1061 ANTENNA__1461__A
*1062 ANTENNA__1462__A
*1063 ANTENNA_clkbuf_0_clk_A
*1064 ANTENNA_input10_A
*1065 ANTENNA_input11_A
*1066 ANTENNA_input12_A
*1067 ANTENNA_input13_A
*1068 ANTENNA_input14_A
*1069 ANTENNA_input15_A
*1070 ANTENNA_input16_A
*1071 ANTENNA_input17_A
*1072 ANTENNA_input18_A
*1073 ANTENNA_input19_A
*1074 ANTENNA_input1_A
*1075 ANTENNA_input20_A
*1076 ANTENNA_input21_A
*1077 ANTENNA_input22_A
*1078 ANTENNA_input23_A
*1079 ANTENNA_input24_A
*1080 ANTENNA_input25_A
*1081 ANTENNA_input26_A
*1082 ANTENNA_input27_A
*1083 ANTENNA_input28_A
*1084 ANTENNA_input29_A
*1085 ANTENNA_input2_A
*1086 ANTENNA_input3_A
*1087 ANTENNA_input4_A
*1088 ANTENNA_input5_A
*1089 ANTENNA_input6_A
*1090 ANTENNA_input7_A
*1091 ANTENNA_input8_A
*1092 ANTENNA_input9_A
*1093 ANTENNA_output31_A
*1094 ANTENNA_output34_A
*1095 ANTENNA_output35_A
*1096 FILLER_0_109
*1097 FILLER_0_11
*1098 FILLER_0_113
*1099 FILLER_0_125
*1100 FILLER_0_137
*1101 FILLER_0_141
*1102 FILLER_0_153
*1103 FILLER_0_165
*1104 FILLER_0_169
*1105 FILLER_0_18
*1106 FILLER_0_181
*1107 FILLER_0_193
*1108 FILLER_0_197
*1109 FILLER_0_209
*1110 FILLER_0_221
*1111 FILLER_0_225
*1112 FILLER_0_237
*1113 FILLER_0_24
*1114 FILLER_0_249
*1115 FILLER_0_253
*1116 FILLER_0_265
*1117 FILLER_0_277
*1118 FILLER_0_281
*1119 FILLER_0_293
*1120 FILLER_0_3
*1121 FILLER_0_305
*1122 FILLER_0_309
*1123 FILLER_0_32
*1124 FILLER_0_321
*1125 FILLER_0_333
*1126 FILLER_0_337
*1127 FILLER_0_349
*1128 FILLER_0_361
*1129 FILLER_0_365
*1130 FILLER_0_377
*1131 FILLER_0_38
*1132 FILLER_0_389
*1133 FILLER_0_393
*1134 FILLER_0_403
*1135 FILLER_0_50
*1136 FILLER_0_57
*1137 FILLER_0_69
*1138 FILLER_0_81
*1139 FILLER_0_85
*1140 FILLER_0_97
*1141 FILLER_10_103
*1142 FILLER_10_107
*1143 FILLER_10_118
*1144 FILLER_10_12
*1145 FILLER_10_130
*1146 FILLER_10_138
*1147 FILLER_10_144
*1148 FILLER_10_156
*1149 FILLER_10_171
*1150 FILLER_10_183
*1151 FILLER_10_195
*1152 FILLER_10_197
*1153 FILLER_10_209
*1154 FILLER_10_217
*1155 FILLER_10_223
*1156 FILLER_10_235
*1157 FILLER_10_24
*1158 FILLER_10_247
*1159 FILLER_10_251
*1160 FILLER_10_253
*1161 FILLER_10_259
*1162 FILLER_10_280
*1163 FILLER_10_292
*1164 FILLER_10_304
*1165 FILLER_10_309
*1166 FILLER_10_321
*1167 FILLER_10_333
*1168 FILLER_10_345
*1169 FILLER_10_357
*1170 FILLER_10_363
*1171 FILLER_10_365
*1172 FILLER_10_377
*1173 FILLER_10_389
*1174 FILLER_10_401
*1175 FILLER_10_50
*1176 FILLER_10_58
*1177 FILLER_10_6
*1178 FILLER_10_62
*1179 FILLER_10_69
*1180 FILLER_10_73
*1181 FILLER_10_80
*1182 FILLER_10_91
*1183 FILLER_11_102
*1184 FILLER_11_110
*1185 FILLER_11_113
*1186 FILLER_11_125
*1187 FILLER_11_137
*1188 FILLER_11_149
*1189 FILLER_11_15
*1190 FILLER_11_161
*1191 FILLER_11_167
*1192 FILLER_11_169
*1193 FILLER_11_173
*1194 FILLER_11_177
*1195 FILLER_11_189
*1196 FILLER_11_201
*1197 FILLER_11_213
*1198 FILLER_11_221
*1199 FILLER_11_225
*1200 FILLER_11_229
*1201 FILLER_11_23
*1202 FILLER_11_251
*1203 FILLER_11_263
*1204 FILLER_11_276
*1205 FILLER_11_281
*1206 FILLER_11_29
*1207 FILLER_11_293
*1208 FILLER_11_3
*1209 FILLER_11_301
*1210 FILLER_11_305
*1211 FILLER_11_311
*1212 FILLER_11_323
*1213 FILLER_11_335
*1214 FILLER_11_337
*1215 FILLER_11_349
*1216 FILLER_11_361
*1217 FILLER_11_366
*1218 FILLER_11_37
*1219 FILLER_11_378
*1220 FILLER_11_390
*1221 FILLER_11_396
*1222 FILLER_11_404
*1223 FILLER_11_49
*1224 FILLER_11_52
*1225 FILLER_11_67
*1226 FILLER_11_74
*1227 FILLER_11_80
*1228 FILLER_11_86
*1229 FILLER_11_96
*1230 FILLER_12_109
*1231 FILLER_12_121
*1232 FILLER_12_13
*1233 FILLER_12_133
*1234 FILLER_12_139
*1235 FILLER_12_141
*1236 FILLER_12_153
*1237 FILLER_12_165
*1238 FILLER_12_169
*1239 FILLER_12_181
*1240 FILLER_12_193
*1241 FILLER_12_199
*1242 FILLER_12_207
*1243 FILLER_12_212
*1244 FILLER_12_22
*1245 FILLER_12_224
*1246 FILLER_12_236
*1247 FILLER_12_248
*1248 FILLER_12_253
*1249 FILLER_12_265
*1250 FILLER_12_269
*1251 FILLER_12_276
*1252 FILLER_12_282
*1253 FILLER_12_29
*1254 FILLER_12_294
*1255 FILLER_12_304
*1256 FILLER_12_326
*1257 FILLER_12_33
*1258 FILLER_12_338
*1259 FILLER_12_350
*1260 FILLER_12_362
*1261 FILLER_12_373
*1262 FILLER_12_385
*1263 FILLER_12_397
*1264 FILLER_12_405
*1265 FILLER_12_43
*1266 FILLER_12_49
*1267 FILLER_12_5
*1268 FILLER_12_61
*1269 FILLER_12_72
*1270 FILLER_12_78
*1271 FILLER_12_85
*1272 FILLER_12_97
*1273 FILLER_13_106
*1274 FILLER_13_113
*1275 FILLER_13_142
*1276 FILLER_13_15
*1277 FILLER_13_150
*1278 FILLER_13_154
*1279 FILLER_13_164
*1280 FILLER_13_175
*1281 FILLER_13_181
*1282 FILLER_13_189
*1283 FILLER_13_192
*1284 FILLER_13_206
*1285 FILLER_13_212
*1286 FILLER_13_218
*1287 FILLER_13_225
*1288 FILLER_13_230
*1289 FILLER_13_255
*1290 FILLER_13_263
*1291 FILLER_13_266
*1292 FILLER_13_276
*1293 FILLER_13_287
*1294 FILLER_13_293
*1295 FILLER_13_299
*1296 FILLER_13_305
*1297 FILLER_13_311
*1298 FILLER_13_320
*1299 FILLER_13_332
*1300 FILLER_13_343
*1301 FILLER_13_355
*1302 FILLER_13_36
*1303 FILLER_13_363
*1304 FILLER_13_368
*1305 FILLER_13_388
*1306 FILLER_13_393
*1307 FILLER_13_405
*1308 FILLER_13_50
*1309 FILLER_13_59
*1310 FILLER_13_6
*1311 FILLER_13_67
*1312 FILLER_13_70
*1313 FILLER_13_82
*1314 FILLER_13_94
*1315 FILLER_14_122
*1316 FILLER_14_129
*1317 FILLER_14_137
*1318 FILLER_14_15
*1319 FILLER_14_162
*1320 FILLER_14_168
*1321 FILLER_14_179
*1322 FILLER_14_187
*1323 FILLER_14_192
*1324 FILLER_14_197
*1325 FILLER_14_202
*1326 FILLER_14_210
*1327 FILLER_14_220
*1328 FILLER_14_226
*1329 FILLER_14_233
*1330 FILLER_14_24
*1331 FILLER_14_240
*1332 FILLER_14_253
*1333 FILLER_14_265
*1334 FILLER_14_288
*1335 FILLER_14_29
*1336 FILLER_14_296
*1337 FILLER_14_3
*1338 FILLER_14_309
*1339 FILLER_14_318
*1340 FILLER_14_338
*1341 FILLER_14_350
*1342 FILLER_14_362
*1343 FILLER_14_365
*1344 FILLER_14_377
*1345 FILLER_14_389
*1346 FILLER_14_397
*1347 FILLER_14_403
*1348 FILLER_14_47
*1349 FILLER_14_55
*1350 FILLER_14_61
*1351 FILLER_14_69
*1352 FILLER_14_74
*1353 FILLER_14_82
*1354 FILLER_14_85
*1355 FILLER_14_97
*1356 FILLER_15_100
*1357 FILLER_15_104
*1358 FILLER_15_113
*1359 FILLER_15_12
*1360 FILLER_15_125
*1361 FILLER_15_131
*1362 FILLER_15_138
*1363 FILLER_15_150
*1364 FILLER_15_162
*1365 FILLER_15_169
*1366 FILLER_15_196
*1367 FILLER_15_20
*1368 FILLER_15_205
*1369 FILLER_15_213
*1370 FILLER_15_220
*1371 FILLER_15_233
*1372 FILLER_15_237
*1373 FILLER_15_259
*1374 FILLER_15_271
*1375 FILLER_15_279
*1376 FILLER_15_28
*1377 FILLER_15_287
*1378 FILLER_15_303
*1379 FILLER_15_311
*1380 FILLER_15_319
*1381 FILLER_15_322
*1382 FILLER_15_334
*1383 FILLER_15_337
*1384 FILLER_15_349
*1385 FILLER_15_355
*1386 FILLER_15_365
*1387 FILLER_15_372
*1388 FILLER_15_384
*1389 FILLER_15_39
*1390 FILLER_15_393
*1391 FILLER_15_405
*1392 FILLER_15_43
*1393 FILLER_15_48
*1394 FILLER_15_6
*1395 FILLER_15_61
*1396 FILLER_15_67
*1397 FILLER_15_73
*1398 FILLER_15_76
*1399 FILLER_15_88
*1400 FILLER_16_106
*1401 FILLER_16_122
*1402 FILLER_16_136
*1403 FILLER_16_144
*1404 FILLER_16_15
*1405 FILLER_16_152
*1406 FILLER_16_158
*1407 FILLER_16_183
*1408 FILLER_16_190
*1409 FILLER_16_197
*1410 FILLER_16_200
*1411 FILLER_16_206
*1412 FILLER_16_210
*1413 FILLER_16_213
*1414 FILLER_16_219
*1415 FILLER_16_225
*1416 FILLER_16_239
*1417 FILLER_16_251
*1418 FILLER_16_253
*1419 FILLER_16_263
*1420 FILLER_16_27
*1421 FILLER_16_283
*1422 FILLER_16_295
*1423 FILLER_16_3
*1424 FILLER_16_307
*1425 FILLER_16_314
*1426 FILLER_16_318
*1427 FILLER_16_321
*1428 FILLER_16_333
*1429 FILLER_16_345
*1430 FILLER_16_35
*1431 FILLER_16_357
*1432 FILLER_16_363
*1433 FILLER_16_372
*1434 FILLER_16_381
*1435 FILLER_16_393
*1436 FILLER_16_405
*1437 FILLER_16_43
*1438 FILLER_16_51
*1439 FILLER_16_59
*1440 FILLER_16_64
*1441 FILLER_16_72
*1442 FILLER_16_80
*1443 FILLER_16_85
*1444 FILLER_16_97
*1445 FILLER_17_108
*1446 FILLER_17_123
*1447 FILLER_17_137
*1448 FILLER_17_149
*1449 FILLER_17_15
*1450 FILLER_17_164
*1451 FILLER_17_169
*1452 FILLER_17_177
*1453 FILLER_17_183
*1454 FILLER_17_195
*1455 FILLER_17_207
*1456 FILLER_17_210
*1457 FILLER_17_222
*1458 FILLER_17_225
*1459 FILLER_17_237
*1460 FILLER_17_249
*1461 FILLER_17_265
*1462 FILLER_17_27
*1463 FILLER_17_277
*1464 FILLER_17_281
*1465 FILLER_17_293
*1466 FILLER_17_297
*1467 FILLER_17_3
*1468 FILLER_17_303
*1469 FILLER_17_314
*1470 FILLER_17_320
*1471 FILLER_17_326
*1472 FILLER_17_334
*1473 FILLER_17_337
*1474 FILLER_17_345
*1475 FILLER_17_351
*1476 FILLER_17_371
*1477 FILLER_17_383
*1478 FILLER_17_391
*1479 FILLER_17_393
*1480 FILLER_17_405
*1481 FILLER_17_52
*1482 FILLER_17_61
*1483 FILLER_17_73
*1484 FILLER_17_80
*1485 FILLER_17_86
*1486 FILLER_18_116
*1487 FILLER_18_12
*1488 FILLER_18_120
*1489 FILLER_18_127
*1490 FILLER_18_134
*1491 FILLER_18_143
*1492 FILLER_18_155
*1493 FILLER_18_167
*1494 FILLER_18_171
*1495 FILLER_18_178
*1496 FILLER_18_192
*1497 FILLER_18_197
*1498 FILLER_18_20
*1499 FILLER_18_209
*1500 FILLER_18_221
*1501 FILLER_18_225
*1502 FILLER_18_235
*1503 FILLER_18_24
*1504 FILLER_18_247
*1505 FILLER_18_251
*1506 FILLER_18_253
*1507 FILLER_18_259
*1508 FILLER_18_264
*1509 FILLER_18_289
*1510 FILLER_18_301
*1511 FILLER_18_307
*1512 FILLER_18_309
*1513 FILLER_18_328
*1514 FILLER_18_340
*1515 FILLER_18_343
*1516 FILLER_18_35
*1517 FILLER_18_355
*1518 FILLER_18_363
*1519 FILLER_18_365
*1520 FILLER_18_375
*1521 FILLER_18_395
*1522 FILLER_18_42
*1523 FILLER_18_54
*1524 FILLER_18_57
*1525 FILLER_18_6
*1526 FILLER_18_69
*1527 FILLER_18_81
*1528 FILLER_18_85
*1529 FILLER_18_91
*1530 FILLER_19_100
*1531 FILLER_19_113
*1532 FILLER_19_119
*1533 FILLER_19_126
*1534 FILLER_19_136
*1535 FILLER_19_148
*1536 FILLER_19_15
*1537 FILLER_19_160
*1538 FILLER_19_169
*1539 FILLER_19_177
*1540 FILLER_19_181
*1541 FILLER_19_206
*1542 FILLER_19_21
*1543 FILLER_19_218
*1544 FILLER_19_225
*1545 FILLER_19_232
*1546 FILLER_19_236
*1547 FILLER_19_243
*1548 FILLER_19_253
*1549 FILLER_19_265
*1550 FILLER_19_277
*1551 FILLER_19_281
*1552 FILLER_19_285
*1553 FILLER_19_3
*1554 FILLER_19_307
*1555 FILLER_19_313
*1556 FILLER_19_325
*1557 FILLER_19_333
*1558 FILLER_19_337
*1559 FILLER_19_349
*1560 FILLER_19_361
*1561 FILLER_19_365
*1562 FILLER_19_377
*1563 FILLER_19_389
*1564 FILLER_19_393
*1565 FILLER_19_405
*1566 FILLER_19_46
*1567 FILLER_19_54
*1568 FILLER_19_57
*1569 FILLER_19_69
*1570 FILLER_19_93
*1571 FILLER_1_100
*1572 FILLER_1_103
*1573 FILLER_1_111
*1574 FILLER_1_113
*1575 FILLER_1_12
*1576 FILLER_1_125
*1577 FILLER_1_137
*1578 FILLER_1_149
*1579 FILLER_1_16
*1580 FILLER_1_161
*1581 FILLER_1_167
*1582 FILLER_1_169
*1583 FILLER_1_181
*1584 FILLER_1_193
*1585 FILLER_1_20
*1586 FILLER_1_205
*1587 FILLER_1_217
*1588 FILLER_1_223
*1589 FILLER_1_225
*1590 FILLER_1_237
*1591 FILLER_1_249
*1592 FILLER_1_255
*1593 FILLER_1_267
*1594 FILLER_1_279
*1595 FILLER_1_281
*1596 FILLER_1_293
*1597 FILLER_1_305
*1598 FILLER_1_317
*1599 FILLER_1_32
*1600 FILLER_1_329
*1601 FILLER_1_335
*1602 FILLER_1_337
*1603 FILLER_1_349
*1604 FILLER_1_361
*1605 FILLER_1_373
*1606 FILLER_1_385
*1607 FILLER_1_391
*1608 FILLER_1_393
*1609 FILLER_1_405
*1610 FILLER_1_44
*1611 FILLER_1_57
*1612 FILLER_1_6
*1613 FILLER_1_69
*1614 FILLER_1_81
*1615 FILLER_1_92
*1616 FILLER_20_109
*1617 FILLER_20_12
*1618 FILLER_20_121
*1619 FILLER_20_133
*1620 FILLER_20_139
*1621 FILLER_20_141
*1622 FILLER_20_153
*1623 FILLER_20_171
*1624 FILLER_20_183
*1625 FILLER_20_195
*1626 FILLER_20_197
*1627 FILLER_20_208
*1628 FILLER_20_220
*1629 FILLER_20_230
*1630 FILLER_20_24
*1631 FILLER_20_242
*1632 FILLER_20_250
*1633 FILLER_20_253
*1634 FILLER_20_265
*1635 FILLER_20_276
*1636 FILLER_20_29
*1637 FILLER_20_301
*1638 FILLER_20_307
*1639 FILLER_20_309
*1640 FILLER_20_317
*1641 FILLER_20_32
*1642 FILLER_20_329
*1643 FILLER_20_341
*1644 FILLER_20_353
*1645 FILLER_20_361
*1646 FILLER_20_365
*1647 FILLER_20_369
*1648 FILLER_20_381
*1649 FILLER_20_39
*1650 FILLER_20_393
*1651 FILLER_20_405
*1652 FILLER_20_46
*1653 FILLER_20_52
*1654 FILLER_20_6
*1655 FILLER_20_64
*1656 FILLER_20_75
*1657 FILLER_20_83
*1658 FILLER_20_85
*1659 FILLER_20_97
*1660 FILLER_21_105
*1661 FILLER_21_111
*1662 FILLER_21_113
*1663 FILLER_21_121
*1664 FILLER_21_125
*1665 FILLER_21_131
*1666 FILLER_21_138
*1667 FILLER_21_146
*1668 FILLER_21_15
*1669 FILLER_21_150
*1670 FILLER_21_162
*1671 FILLER_21_179
*1672 FILLER_21_191
*1673 FILLER_21_203
*1674 FILLER_21_215
*1675 FILLER_21_223
*1676 FILLER_21_225
*1677 FILLER_21_23
*1678 FILLER_21_230
*1679 FILLER_21_242
*1680 FILLER_21_254
*1681 FILLER_21_265
*1682 FILLER_21_277
*1683 FILLER_21_281
*1684 FILLER_21_293
*1685 FILLER_21_3
*1686 FILLER_21_305