*SPEF "ieee 1481-1999"
*DESIGN "SPI"
*DATE "11:11:11 Fri 11 11, 1111"
*VENDOR "OpenRCX"
*PROGRAM "Parallel Extraction"
*VERSION "1.0"
*DESIGN_FLOW "NAME_SCOPE LOCAL" "PIN_CAP NONE"
*DIVIDER /
*DELIMITER :
*BUS_DELIMITER []
*T_UNIT 1 NS
*C_UNIT 1 PF
*R_UNIT 1 OHM
*L_UNIT 1 HENRY

*NAME_MAP
*1 clk
*2 peripheralBus_address[0]
*3 peripheralBus_address[10]
*4 peripheralBus_address[11]
*5 peripheralBus_address[12]
*6 peripheralBus_address[13]
*7 peripheralBus_address[14]
*8 peripheralBus_address[15]
*9 peripheralBus_address[16]
*10 peripheralBus_address[17]
*11 peripheralBus_address[18]
*12 peripheralBus_address[19]
*13 peripheralBus_address[1]
*14 peripheralBus_address[20]
*15 peripheralBus_address[21]
*16 peripheralBus_address[22]
*17 peripheralBus_address[23]
*18 peripheralBus_address[2]
*19 peripheralBus_address[3]
*20 peripheralBus_address[4]
*21 peripheralBus_address[5]
*22 peripheralBus_address[6]
*23 peripheralBus_address[7]
*24 peripheralBus_address[8]
*25 peripheralBus_address[9]
*26 peripheralBus_busy
*27 peripheralBus_data[0]
*28 peripheralBus_data[10]
*29 peripheralBus_data[11]
*30 peripheralBus_data[12]
*31 peripheralBus_data[13]
*32 peripheralBus_data[14]
*33 peripheralBus_data[15]
*34 peripheralBus_data[16]
*35 peripheralBus_data[17]
*36 peripheralBus_data[18]
*37 peripheralBus_data[19]
*38 peripheralBus_data[1]
*39 peripheralBus_data[20]
*40 peripheralBus_data[21]
*41 peripheralBus_data[22]
*42 peripheralBus_data[23]
*43 peripheralBus_data[24]
*44 peripheralBus_data[25]
*45 peripheralBus_data[26]
*46 peripheralBus_data[27]
*47 peripheralBus_data[28]
*48 peripheralBus_data[29]
*49 peripheralBus_data[2]
*50 peripheralBus_data[30]
*51 peripheralBus_data[31]
*52 peripheralBus_data[3]
*53 peripheralBus_data[4]
*54 peripheralBus_data[5]
*55 peripheralBus_data[6]
*56 peripheralBus_data[7]
*57 peripheralBus_data[8]
*58 peripheralBus_data[9]
*59 peripheralBus_oe
*60 peripheralBus_we
*61 rst
*62 spi_clk[0]
*63 spi_clk[1]
*64 spi_cs[0]
*65 spi_cs[1]
*66 net133
*67 net134
*68 spi_miso[0]
*69 spi_miso[1]
*70 spi_mosi[0]
*71 spi_mosi[1]
*74 _0000_
*75 _0001_
*76 _0002_
*77 _0003_
*78 _0004_
*79 _0005_
*80 _0006_
*81 _0007_
*82 _0008_
*83 _0009_
*84 _0010_
*85 _0011_
*86 _0012_
*87 _0013_
*88 _0014_
*89 _0015_
*90 _0016_
*91 _0017_
*92 _0018_
*93 _0019_
*94 _0020_
*95 _0021_
*96 _0022_
*97 _0023_
*98 _0024_
*99 _0025_
*100 _0026_
*101 _0027_
*102 _0028_
*103 _0029_
*104 _0030_
*105 _0031_
*106 _0032_
*107 _0033_
*108 _0034_
*109 _0035_
*110 _0036_
*111 _0037_
*112 _0038_
*113 _0039_
*114 _0040_
*115 _0041_
*116 _0042_
*117 _0043_
*118 _0044_
*119 _0045_
*120 _0046_
*121 _0047_
*122 _0048_
*123 _0049_
*124 _0050_
*125 _0051_
*126 _0052_
*127 _0053_
*128 _0054_
*129 _0055_
*130 _0056_
*131 _0057_
*132 _0058_
*133 _0059_
*134 _0060_
*135 _0061_
*136 _0062_
*137 _0063_
*138 _0064_
*139 _0065_
*140 _0066_
*141 _0067_
*142 _0068_
*143 _0069_
*144 _0070_
*145 _0071_
*146 _0072_
*147 _0073_
*148 _0074_
*149 _0075_
*150 _0076_
*151 _0077_
*152 _0078_
*153 _0079_
*154 _0080_
*155 _0081_
*156 _0082_
*157 _0083_
*158 _0084_
*159 _0085_
*160 _0086_
*161 _0087_
*162 _0088_
*163 _0089_
*164 _0090_
*165 _0091_
*166 _0092_
*167 _0093_
*168 _0094_
*169 _0095_
*170 _0096_
*171 _0097_
*172 _0098_
*173 _0099_
*174 _0100_
*175 _0101_
*176 _0102_
*177 _0103_
*178 _0104_
*179 _0105_
*180 _0106_
*181 _0107_
*182 _0108_
*183 _0109_
*184 _0110_
*185 _0111_
*186 _0112_
*187 _0113_
*188 _0114_
*189 _0115_
*190 _0116_
*191 _0117_
*192 _0118_
*193 _0119_
*194 _0120_
*195 _0121_
*196 _0122_
*197 _0123_
*198 _0124_
*199 _0125_
*200 _0126_
*201 _0127_
*202 _0128_
*203 _0129_
*204 _0130_
*205 _0131_
*206 _0132_
*207 _0133_
*208 _0134_
*209 _0135_
*210 _0136_
*211 _0137_
*212 _0138_
*213 _0139_
*214 _0140_
*215 _0141_
*216 _0142_
*217 _0143_
*218 _0144_
*219 _0145_
*220 _0146_
*221 _0147_
*222 _0148_
*223 _0149_
*224 _0150_
*225 _0151_
*226 _0152_
*227 _0153_
*228 _0154_
*229 _0155_
*230 _0156_
*231 _0157_
*232 _0158_
*233 _0159_
*234 _0160_
*235 _0161_
*236 _0162_
*237 _0163_
*238 _0164_
*239 _0165_
*240 _0166_
*241 _0167_
*242 _0168_
*243 _0169_
*244 _0170_
*245 _0171_
*246 _0172_
*247 _0173_
*248 _0174_
*249 _0175_
*250 _0176_
*251 _0177_
*252 _0178_
*253 _0179_
*254 _0180_
*255 _0181_
*256 _0182_
*257 _0183_
*258 _0184_
*259 _0185_
*260 _0186_
*261 _0187_
*262 _0188_
*263 _0189_
*264 _0190_
*265 _0191_
*266 _0192_
*267 _0193_
*268 _0194_
*269 _0195_
*270 _0196_
*271 _0197_
*272 _0198_
*273 _0199_
*274 _0200_
*275 _0201_
*276 _0202_
*277 _0203_
*278 _0204_
*279 _0205_
*280 _0206_
*281 _0207_
*282 _0208_
*283 _0209_
*284 _0210_
*285 _0211_
*286 _0212_
*287 _0213_
*288 _0214_
*289 _0215_
*290 _0216_
*291 _0217_
*292 _0218_
*293 _0219_
*294 _0220_
*295 _0221_
*296 _0222_
*297 _0223_
*298 _0224_
*299 _0225_
*300 _0226_
*301 _0227_
*302 _0228_
*303 _0229_
*304 _0230_
*305 _0231_
*306 _0232_
*307 _0233_
*308 _0234_
*309 _0235_
*310 _0236_
*311 _0237_
*312 _0238_
*313 _0239_
*314 _0240_
*315 _0241_
*316 _0242_
*317 _0243_
*318 _0244_
*319 _0245_
*320 _0246_
*321 _0247_
*322 _0248_
*323 _0249_
*324 _0250_
*325 _0251_
*326 _0252_
*327 _0253_
*328 _0254_
*329 _0255_
*330 _0256_
*331 _0257_
*332 _0258_
*333 _0259_
*334 _0260_
*335 _0261_
*336 _0262_
*337 _0263_
*338 _0264_
*339 _0265_
*340 _0266_
*341 _0267_
*342 _0268_
*343 _0269_
*344 _0270_
*345 _0271_
*346 _0272_
*347 _0273_
*348 _0274_
*349 _0275_
*350 _0276_
*351 _0277_
*352 _0278_
*353 _0279_
*354 _0280_
*355 _0281_
*356 _0282_
*357 _0283_
*358 _0284_
*359 _0285_
*360 _0286_
*361 _0287_
*362 _0288_
*363 _0289_
*364 _0290_
*365 _0291_
*366 _0292_
*367 _0293_
*368 _0294_
*369 _0295_
*370 _0296_
*371 _0297_
*372 _0298_
*373 _0299_
*374 _0300_
*375 _0301_
*376 _0302_
*377 _0303_
*378 _0304_
*379 _0305_
*380 _0306_
*381 _0307_
*382 _0308_
*383 _0309_
*384 _0310_
*385 _0311_
*386 _0312_
*387 _0313_
*388 _0314_
*389 _0315_
*390 _0316_
*391 _0317_
*392 _0318_
*393 _0319_
*394 _0320_
*395 _0321_
*396 _0322_
*397 _0323_
*398 _0324_
*399 _0325_
*400 _0326_
*401 _0327_
*402 _0328_
*403 _0329_
*404 _0330_
*405 _0331_
*406 _0332_
*407 _0333_
*408 _0334_
*409 _0335_
*410 _0336_
*411 _0337_
*412 _0338_
*413 _0339_
*414 _0340_
*415 _0341_
*416 _0342_
*417 _0343_
*418 _0344_
*419 _0345_
*420 _0346_
*421 _0347_
*422 _0348_
*423 _0349_
*424 _0350_
*425 _0351_
*426 _0352_
*427 _0353_
*428 _0354_
*429 _0355_
*430 _0356_
*431 _0357_
*432 _0358_
*433 _0359_
*434 _0360_
*435 _0361_
*436 _0362_
*437 _0363_
*438 _0364_
*439 _0365_
*440 _0366_
*441 _0367_
*442 _0368_
*443 _0369_
*444 _0370_
*445 _0371_
*446 _0372_
*447 _0373_
*448 _0374_
*449 _0375_
*450 _0376_
*451 _0377_
*452 _0378_
*453 _0379_
*454 _0380_
*455 _0381_
*456 _0382_
*457 _0383_
*458 _0384_
*459 _0385_
*460 _0386_
*461 _0387_
*462 _0388_
*463 _0389_
*464 _0390_
*465 _0391_
*466 _0392_
*467 _0393_
*468 _0394_
*469 _0395_
*470 _0396_
*471 _0397_
*472 _0398_
*473 _0399_
*474 _0400_
*475 _0401_
*476 _0402_
*477 _0403_
*478 _0404_
*479 _0405_
*480 _0406_
*481 _0407_
*482 _0408_
*483 _0409_
*484 _0410_
*485 _0411_
*486 _0412_
*487 _0413_
*488 _0414_
*489 _0415_
*490 _0416_
*491 _0417_
*492 _0418_
*493 _0419_
*494 _0420_
*495 _0421_
*496 _0422_
*497 _0423_
*498 _0424_
*499 _0425_
*500 _0426_
*501 _0427_
*502 _0428_
*503 _0429_
*504 _0430_
*505 _0431_
*506 _0432_
*507 _0433_
*508 _0434_
*509 _0435_
*510 _0436_
*511 _0437_
*512 _0438_
*513 _0439_
*514 _0440_
*515 _0441_
*516 _0442_
*517 _0443_
*518 _0444_
*519 _0445_
*520 _0446_
*521 _0447_
*522 _0448_
*523 _0449_
*524 _0450_
*525 _0451_
*526 _0452_
*527 _0453_
*528 _0454_
*529 _0455_
*530 _0456_
*531 _0457_
*532 _0458_
*533 _0459_
*534 _0460_
*535 _0461_
*536 _0462_
*537 _0463_
*538 _0464_
*539 _0465_
*540 _0466_
*541 _0467_
*542 _0468_
*543 _0469_
*544 _0470_
*545 _0471_
*546 _0472_
*547 _0473_
*548 _0474_
*549 _0475_
*550 _0476_
*551 _0477_
*552 _0478_
*553 _0479_
*554 _0480_
*555 _0481_
*556 _0482_
*557 _0483_
*558 _0484_
*559 _0485_
*560 _0486_
*561 _0487_
*562 _0488_
*563 _0489_
*564 _0490_
*565 _0491_
*566 _0492_
*567 _0493_
*568 _0494_
*569 _0495_
*570 _0496_
*571 _0497_
*572 _0498_
*573 _0499_
*574 _0500_
*575 _0501_
*576 _0502_
*577 _0503_
*578 _0504_
*579 _0505_
*580 _0506_
*581 _0507_
*582 _0508_
*583 _0509_
*584 _0510_
*585 _0511_
*586 _0512_
*587 _0513_
*588 _0514_
*589 _0515_
*590 _0516_
*591 _0517_
*592 _0518_
*593 _0519_
*594 _0520_
*595 _0521_
*596 _0522_
*597 _0523_
*598 _0524_
*599 _0525_
*600 _0526_
*601 _0527_
*602 _0528_
*603 _0529_
*604 _0530_
*605 _0531_
*606 _0532_
*607 _0533_
*608 _0534_
*609 _0535_
*610 _0536_
*611 _0537_
*612 _0538_
*613 _0539_
*614 _0540_
*615 _0541_
*616 _0542_
*617 _0543_
*618 _0544_
*619 _0545_
*620 _0546_
*621 _0547_
*622 _0548_
*623 _0549_
*624 _0550_
*625 _0551_
*626 _0552_
*627 _0553_
*628 _0554_
*629 _0555_
*630 _0556_
*631 _0557_
*632 _0558_
*633 _0559_
*634 _0560_
*635 _0561_
*636 _0562_
*637 _0563_
*638 _0564_
*639 _0565_
*640 _0566_
*641 _0567_
*642 _0568_
*643 _0569_
*644 _0570_
*645 _0571_
*646 _0572_
*647 _0573_
*648 _0574_
*649 _0575_
*650 _0576_
*651 _0577_
*652 _0578_
*653 _0579_
*654 _0580_
*655 _0581_
*656 _0582_
*657 _0583_
*658 _0584_
*659 _0585_
*660 _0586_
*661 _0587_
*662 _0588_
*663 _0589_
*664 _0590_
*665 _0591_
*666 _0592_
*667 _0593_
*668 _0594_
*669 _0595_
*670 _0596_
*671 _0597_
*672 _0598_
*673 _0599_
*674 _0600_
*675 _0601_
*676 _0602_
*677 _0603_
*678 _0604_
*679 _0605_
*680 _0606_
*681 _0607_
*682 _0608_
*683 _0609_
*684 _0610_
*685 _0611_
*686 _0612_
*687 _0613_
*688 _0614_
*689 _0615_
*690 _0616_
*691 _0617_
*692 _0618_
*693 _0619_
*694 _0620_
*695 _0621_
*696 _0622_
*697 _0623_
*698 _0624_
*699 _0625_
*700 _0626_
*701 _0627_
*702 _0628_
*703 _0629_
*704 clknet_0_clk
*705 clknet_1_0_0_clk
*706 clknet_1_1_0_clk
*707 clknet_2_0_0_clk
*708 clknet_2_1_0_clk
*709 clknet_2_2_0_clk
*710 clknet_2_3_0_clk
*711 genblk1\[0\]\.device\.activeHighCS
*712 genblk1\[0\]\.device\.clockCounter\[0\]
*713 genblk1\[0\]\.device\.clockScale\[0\]
*714 genblk1\[0\]\.device\.clockScale\[1\]
*715 genblk1\[0\]\.device\.clockScale\[2\]
*716 genblk1\[0\]\.device\.dataRegister\.readData\[0\]
*717 genblk1\[0\]\.device\.dataRegister\.readData\[1\]
*718 genblk1\[0\]\.device\.dataRegister\.readData\[2\]
*719 genblk1\[0\]\.device\.dataRegister\.readData\[3\]
*720 genblk1\[0\]\.device\.dataRegister\.readData\[4\]
*721 genblk1\[0\]\.device\.dataRegister\.readData\[5\]
*722 genblk1\[0\]\.device\.dataRegister\.readData\[6\]
*723 genblk1\[0\]\.device\.dataRegister\.readData\[7\]
*724 genblk1\[0\]\.device\.loadEnable
*725 genblk1\[0\]\.device\.msbFirst
*726 genblk1\[0\]\.device\.spiClockFall
*727 genblk1\[0\]\.device\.spiClockRise
*728 genblk1\[0\]\.device\.spiSampleMode
*729 genblk1\[0\]\.device\.state\[0\]
*730 genblk1\[0\]\.device\.state\[1\]
*731 genblk1\[0\]\.device\.useCS
*732 genblk1\[1\]\.device\.activeHighCS
*733 genblk1\[1\]\.device\.clockCounter\[0\]
*734 genblk1\[1\]\.device\.clockScale\[0\]
*735 genblk1\[1\]\.device\.clockScale\[1\]
*736 genblk1\[1\]\.device\.clockScale\[2\]
*737 genblk1\[1\]\.device\.dataRegister\.readData\[0\]
*738 genblk1\[1\]\.device\.dataRegister\.readData\[1\]
*739 genblk1\[1\]\.device\.dataRegister\.readData\[2\]
*740 genblk1\[1\]\.device\.dataRegister\.readData\[3\]
*741 genblk1\[1\]\.device\.dataRegister\.readData\[4\]
*742 genblk1\[1\]\.device\.dataRegister\.readData\[5\]
*743 genblk1\[1\]\.device\.dataRegister\.readData\[6\]
*744 genblk1\[1\]\.device\.dataRegister\.readData\[7\]
*745 genblk1\[1\]\.device\.loadEnable
*746 genblk1\[1\]\.device\.msbFirst
*747 genblk1\[1\]\.device\.spiClockFall
*748 genblk1\[1\]\.device\.spiClockRise
*749 genblk1\[1\]\.device\.spiSampleMode
*750 genblk1\[1\]\.device\.state\[0\]
*751 genblk1\[1\]\.device\.state\[1\]
*752 genblk1\[1\]\.device\.useCS
*753 net1
*754 net10
*755 net100
*756 net101
*757 net102
*758 net103
*759 net104
*760 net105
*761 net106
*762 net107
*763 net108
*764 net109
*765 net11
*766 net110
*767 net111
*768 net112
*769 net113
*770 net114
*771 net115
*772 net116
*773 net117
*774 net118
*775 net119
*776 net12
*777 net120
*778 net121
*779 net122
*780 net123
*781 net124
*782 net125
*783 net126
*784 net127
*785 net128
*786 net129
*787 net13
*788 net130
*789 net131
*790 net132
*791 net14
*792 net15
*793 net16
*794 net17
*795 net18
*796 net19
*797 net2
*798 net20
*799 net21
*800 net22
*801 net23
*802 net24
*803 net25
*804 net26
*805 net27
*806 net28
*807 net29
*808 net3
*809 net30
*810 net31
*811 net32
*812 net33
*813 net34
*814 net35
*815 net36
*816 net37
*817 net38
*818 net39
*819 net4
*820 net40
*821 net41
*822 net42
*823 net43
*824 net44
*825 net45
*826 net46
*827 net47
*828 net48
*829 net49
*830 net5
*831 net50
*832 net51
*833 net52
*834 net53
*835 net54
*836 net55
*837 net56
*838 net57
*839 net58
*840 net59
*841 net6
*842 net60
*843 net61
*844 net62
*845 net63
*846 net64
*847 net65
*848 net66
*849 net67
*850 net68
*851 net69
*852 net7
*853 net70
*854 net71
*855 net72
*856 net73
*857 net74
*858 net75
*859 net76
*860 net77
*861 net78
*862 net79
*863 net8
*864 net80
*865 net81
*866 net82
*867 net83
*868 net84
*869 net85
*870 net86
*871 net87
*872 net88
*873 net89
*874 net9
*875 net90
*876 net91
*877 net92
*878 net93
*879 net94
*880 net95
*881 net96
*882 net97
*883 net98
*884 net99
*885 ANTENNA__0726__A
*886 ANTENNA__0730__A
*887 ANTENNA__0738__A
*888 ANTENNA__0746__A
*889 ANTENNA__0748__D
*890 ANTENNA__0750__A
*891 ANTENNA__0751__A
*892 ANTENNA__0757__A
*893 ANTENNA__0762__D
*894 ANTENNA__0770__A
*895 ANTENNA__0773__D
*896 ANTENNA__0781__D
*897 ANTENNA__0784__A
*898 ANTENNA__0792__A
*899 ANTENNA__0793__D
*900 ANTENNA__0797__A
*901 ANTENNA__0800__A
*902 ANTENNA__0801__A
*903 ANTENNA__0812__A
*904 ANTENNA__0815__A
*905 ANTENNA__0822__A
*906 ANTENNA__0834__A
*907 ANTENNA__0836__C
*908 ANTENNA__0836__D
*909 ANTENNA__0842__A
*910 ANTENNA__0847__D
*911 ANTENNA__0851__A
*912 ANTENNA__0852__D
*913 ANTENNA__0856__A
*914 ANTENNA__0857__C
*915 ANTENNA__0859__D
*916 ANTENNA__0861__D
*917 ANTENNA__0863__A
*918 ANTENNA__0865__A
*919 ANTENNA__0867__A
*920 ANTENNA__0868__D
*921 ANTENNA__0870__A
*922 ANTENNA__0871__C
*923 ANTENNA__0873__D
*924 ANTENNA__0875__C
*925 ANTENNA__0877__A
*926 ANTENNA__0886__A
*927 ANTENNA__0891__A
*928 ANTENNA__0904__D
*929 ANTENNA__0908__C
*930 ANTENNA__0910__D
*931 ANTENNA__0912__C
*932 ANTENNA__0914__A
*933 ANTENNA__0917__A
*934 ANTENNA__0928__A
*935 ANTENNA__0931__A
*936 ANTENNA__0934__A
*937 ANTENNA__0935__A
*938 ANTENNA__0936__A
*939 ANTENNA__0937__A
*940 ANTENNA__0944__A
*941 ANTENNA__0946__C
*942 ANTENNA__0948__C
*943 ANTENNA__0948__D
*944 ANTENNA__0949__A
*945 ANTENNA__0950__A
*946 ANTENNA__0951__A
*947 ANTENNA__0952__C
*948 ANTENNA__0952__D
*949 ANTENNA__0954__C
*950 ANTENNA__0954__D
*951 ANTENNA__0956__A
*952 ANTENNA__0958__C
*953 ANTENNA__0958__D
*954 ANTENNA__0961__C
*955 ANTENNA__0961__D
*956 ANTENNA__0963__C
*957 ANTENNA__0963__D
*958 ANTENNA__0965__A
*959 ANTENNA__0966__A
*960 ANTENNA__0967__C
*961 ANTENNA__0967__D
*962 ANTENNA__0969__C
*963 ANTENNA__0969__D
*964 ANTENNA__0972__C
*965 ANTENNA__0979__A
*966 ANTENNA__0980__A
*967 ANTENNA__0993__A
*968 ANTENNA__0994__A
*969 ANTENNA__1007__A
*970 ANTENNA__1008__A
*971 ANTENNA__1009__A
*972 ANTENNA__1010__A
*973 ANTENNA__1019__D
*974 ANTENNA__1021__D
*975 ANTENNA__1023__A
*976 ANTENNA__1024__A
*977 ANTENNA__1025__D
*978 ANTENNA__1027__D
*979 ANTENNA__1029__D
*980 ANTENNA__1031__A
*981 ANTENNA__1037__A
*982 ANTENNA__1038__A
*983 ANTENNA__1041__C
*984 ANTENNA__1043__C
*985 ANTENNA__1051__A
*986 ANTENNA__1052__A
*987 ANTENNA__1065__A
*988 ANTENNA__1066__A
*989 ANTENNA__1102__A
*990 ANTENNA__1133__A
*991 ANTENNA__1136__A
*992 ANTENNA__1141__A
*993 ANTENNA__1141__B
*994 ANTENNA__1143__A
*995 ANTENNA__1143__B
*996 ANTENNA__1143__C
*997 ANTENNA__1144__A
*998 ANTENNA__1145__A
*999 ANTENNA__1146__B2
*1000 ANTENNA__1147__A
*1001 ANTENNA__1150__A
*1002 ANTENNA__1156__A1
*1003 ANTENNA__1161__A1
*1004 ANTENNA__1166__A1
*1005 ANTENNA__1171__A1
*1006 ANTENNA__1171__A2
*1007 ANTENNA__1176__A1
*1008 ANTENNA__1176__A2
*1009 ANTENNA__1179__A
*1010 ANTENNA__1180__A0
*1011 ANTENNA__1182__A1
*1012 ANTENNA__1182__A2
*1013 ANTENNA__1185__A
*1014 ANTENNA__1187__A0
*1015 ANTENNA__1188__A1
*1016 ANTENNA__1188__A2
*1017 ANTENNA__1191__A1
*1018 ANTENNA__1196__A0
*1019 ANTENNA__1196__A1
*1020 ANTENNA__1203__A
*1021 ANTENNA__1204__A0
*1022 ANTENNA__1207__A0
*1023 ANTENNA__1210__A
*1024 ANTENNA__1211__A0
*1025 ANTENNA__1211__S
*1026 ANTENNA__1214__A
*1027 ANTENNA__1215__A0
*1028 ANTENNA__1216__A
*1029 ANTENNA__1218__A0
*1030 ANTENNA__1219__A
*1031 ANTENNA__1221__A0
*1032 ANTENNA__1221__S
*1033 ANTENNA__1224__A
*1034 ANTENNA__1225__A0
*1035 ANTENNA__1225__S
*1036 ANTENNA__1228__A0
*1037 ANTENNA__1229__A
*1038 ANTENNA__1244__C1
*1039 ANTENNA__1253__A
*1040 ANTENNA__1255__A1
*1041 ANTENNA__1258__A
*1042 ANTENNA__1258__B
*1043 ANTENNA__1258__C
*1044 ANTENNA__1260__B2
*1045 ANTENNA__1261__A
*1046 ANTENNA__1267__A
*1047 ANTENNA__1268__A1
*1048 ANTENNA__1268__B2
*1049 ANTENNA__1269__A
*1050 ANTENNA__1274__A1
*1051 ANTENNA__1274__B2
*1052 ANTENNA__1275__A
*1053 ANTENNA__1279__A1
*1054 ANTENNA__1279__B2
*1055 ANTENNA__1280__A
*1056 ANTENNA__1284__A1
*1057 ANTENNA__1284__B2
*1058 ANTENNA__1285__A
*1059 ANTENNA__1289__A1
*1060 ANTENNA__1290__A
*1061 ANTENNA__1294__A1
*1062 ANTENNA__1295__A
*1063 ANTENNA__1298__A0
*1064 ANTENNA__1300__A1
*1065 ANTENNA__1307__A0
*1066 ANTENNA__1308__A0
*1067 ANTENNA__1308__A1
*1068 ANTENNA__1313__B
*1069 ANTENNA__1315__A0
*1070 ANTENNA__1318__A0
*1071 ANTENNA__1321__A0
*1072 ANTENNA__1324__A0
*1073 ANTENNA__1327__A0
*1074 ANTENNA__1328__A
*1075 ANTENNA__1330__A0
*1076 ANTENNA__1333__A0
*1077 ANTENNA__1336__A0
*1078 ANTENNA__1337__A
*1079 ANTENNA__1351__C1
*1080 ANTENNA__1354__C
*1081 ANTENNA__1355__B1
*1082 ANTENNA__1357__A
*1083 ANTENNA__1358__B1
*1084 ANTENNA__1359__CLK
*1085 ANTENNA__1366__CLK
*1086 ANTENNA__1368__CLK
*1087 ANTENNA__1369__CLK
*1088 ANTENNA__1370__CLK
*1089 ANTENNA__1371__CLK
*1090 ANTENNA__1372__CLK
*1091 ANTENNA__1373__CLK
*1092 ANTENNA__1374__CLK
*1093 ANTENNA__1375__CLK
*1094 ANTENNA__1376__CLK
*1095 ANTENNA__1377__CLK
*1096 ANTENNA__1378__CLK
*1097 ANTENNA__1379__CLK
*1098 ANTENNA__1380__CLK
*1099 ANTENNA__1381__CLK
*1100 ANTENNA__1382__CLK
*1101 ANTENNA__1383__CLK
*1102 ANTENNA__1384__CLK
*1103 ANTENNA__1385__CLK
*1104 ANTENNA__1386__CLK
*1105 ANTENNA__1387__CLK
*1106 ANTENNA__1388__CLK
*1107 ANTENNA__1389__CLK
*1108 ANTENNA__1390__CLK
*1109 ANTENNA__1391__CLK
*1110 ANTENNA__1392__CLK
*1111 ANTENNA__1393__CLK
*1112 ANTENNA__1394__CLK
*1113 ANTENNA__1395__CLK
*1114 ANTENNA__1396__CLK
*1115 ANTENNA__1397__CLK
*1116 ANTENNA__1398__CLK
*1117 ANTENNA__1399__CLK
*1118 ANTENNA__1400__CLK
*1119 ANTENNA__1401__CLK
*1120 ANTENNA__1402__CLK
*1121 ANTENNA__1403__CLK
*1122 ANTENNA__1404__CLK
*1123 ANTENNA__1510__A
*1124 ANTENNA_clkbuf_0_clk_A
*1125 ANTENNA_input10_A
*1126 ANTENNA_input11_A
*1127 ANTENNA_input12_A
*1128 ANTENNA_input13_A
*1129 ANTENNA_input14_A
*1130 ANTENNA_input15_A
*1131 ANTENNA_input16_A
*1132 ANTENNA_input17_A
*1133 ANTENNA_input18_A
*1134 ANTENNA_input19_A
*1135 ANTENNA_input1_A
*1136 ANTENNA_input20_A
*1137 ANTENNA_input21_A
*1138 ANTENNA_input22_A
*1139 ANTENNA_input23_A
*1140 ANTENNA_input24_A
*1141 ANTENNA_input25_A
*1142 ANTENNA_input26_A
*1143 ANTENNA_input27_A
*1144 ANTENNA_input28_A
*1145 ANTENNA_input29_A
*1146 ANTENNA_input2_A
*1147 ANTENNA_input3_A
*1148 ANTENNA_input4_A
*1149 ANTENNA_input5_A
*1150 ANTENNA_input6_A
*1151 ANTENNA_input7_A
*1152 ANTENNA_input8_A
*1153 ANTENNA_input9_A
*1154 ANTENNA_output30_A
*1155 ANTENNA_output34_A
*1156 ANTENNA_output35_A
*1157 FILLER_0_109
*1158 FILLER_0_113
*1159 FILLER_0_125
*1160 FILLER_0_13
*1161 FILLER_0_137
*1162 FILLER_0_141
*1163 FILLER_0_153
*1164 FILLER_0_165
*1165 FILLER_0_169
*1166 FILLER_0_181
*1167 FILLER_0_193
*1168 FILLER_0_197
*1169 FILLER_0_20
*1170 FILLER_0_209
*1171 FILLER_0_221
*1172 FILLER_0_225
*1173 FILLER_0_237
*1174 FILLER_0_249
*1175 FILLER_0_253
*1176 FILLER_0_265
*1177 FILLER_0_277
*1178 FILLER_0_281
*1179 FILLER_0_29
*1180 FILLER_0_293
*1181 FILLER_0_3
*1182 FILLER_0_305
*1183 FILLER_0_309
*1184 FILLER_0_321
*1185 FILLER_0_333
*1186 FILLER_0_337
*1187 FILLER_0_349
*1188 FILLER_0_361
*1189 FILLER_0_365
*1190 FILLER_0_377
*1191 FILLER_0_389
*1192 FILLER_0_393
*1193 FILLER_0_403
*1194 FILLER_0_41
*1195 FILLER_0_53
*1196 FILLER_0_57
*1197 FILLER_0_69
*1198 FILLER_0_81
*1199 FILLER_0_85
*1200 FILLER_0_97
*1201 FILLER_10_105
*1202 FILLER_10_12
*1203 FILLER_10_128
*1204 FILLER_10_141
*1205 FILLER_10_149
*1206 FILLER_10_173
*1207 FILLER_10_179
*1208 FILLER_10_184
*1209 FILLER_10_190
*1210 FILLER_10_197
*1211 FILLER_10_219
*1212 FILLER_10_230
*1213 FILLER_10_24
*1214 FILLER_10_244
*1215 FILLER_10_253
*1216 FILLER_10_261
*1217 FILLER_10_284
*1218 FILLER_10_29
*1219 FILLER_10_296
*1220 FILLER_10_309
*1221 FILLER_10_319
*1222 FILLER_10_331
*1223 FILLER_10_343
*1224 FILLER_10_355
*1225 FILLER_10_363
*1226 FILLER_10_365
*1227 FILLER_10_369
*1228 FILLER_10_375
*1229 FILLER_10_387
*1230 FILLER_10_399
*1231 FILLER_10_41
*1232 FILLER_10_53
*1233 FILLER_10_6
*1234 FILLER_10_64
*1235 FILLER_10_76
*1236 FILLER_10_85
*1237 FILLER_10_97
*1238 FILLER_11_108
*1239 FILLER_11_113
*1240 FILLER_11_117
*1241 FILLER_11_139
*1242 FILLER_11_15
*1243 FILLER_11_151
*1244 FILLER_11_163
*1245 FILLER_11_167
*1246 FILLER_11_173
*1247 FILLER_11_185
*1248 FILLER_11_197
*1249 FILLER_11_209
*1250 FILLER_11_221
*1251 FILLER_11_225
*1252 FILLER_11_237
*1253 FILLER_11_245
*1254 FILLER_11_256
*1255 FILLER_11_260
*1256 FILLER_11_265
*1257 FILLER_11_27
*1258 FILLER_11_274
*1259 FILLER_11_297
*1260 FILLER_11_3
*1261 FILLER_11_303
*1262 FILLER_11_311
*1263 FILLER_11_317
*1264 FILLER_11_324
*1265 FILLER_11_330
*1266 FILLER_11_337
*1267 FILLER_11_349
*1268 FILLER_11_359
*1269 FILLER_11_369
*1270 FILLER_11_377
*1271 FILLER_11_389
*1272 FILLER_11_39
*1273 FILLER_11_393
*1274 FILLER_11_405
*1275 FILLER_11_52
*1276 FILLER_11_59
*1277 FILLER_11_72
*1278 FILLER_11_84
*1279 FILLER_12_105
*1280 FILLER_12_110
*1281 FILLER_12_116
*1282 FILLER_12_120
*1283 FILLER_12_13
*1284 FILLER_12_136
*1285 FILLER_12_141
*1286 FILLER_12_153
*1287 FILLER_12_176
*1288 FILLER_12_188
*1289 FILLER_12_197
*1290 FILLER_12_201
*1291 FILLER_12_205
*1292 FILLER_12_21
*1293 FILLER_12_211
*1294 FILLER_12_218
*1295 FILLER_12_230
*1296 FILLER_12_242
*1297 FILLER_12_250
*1298 FILLER_12_253
*1299 FILLER_12_261
*1300 FILLER_12_27
*1301 FILLER_12_283
*1302 FILLER_12_29
*1303 FILLER_12_295
*1304 FILLER_12_301
*1305 FILLER_12_304
*1306 FILLER_12_309
*1307 FILLER_12_319
*1308 FILLER_12_333
*1309 FILLER_12_345
*1310 FILLER_12_357
*1311 FILLER_12_360
*1312 FILLER_12_365
*1313 FILLER_12_374
*1314 FILLER_12_381
*1315 FILLER_12_393
*1316 FILLER_12_405
*1317 FILLER_12_41
*1318 FILLER_12_49
*1319 FILLER_12_5
*1320 FILLER_12_62
*1321 FILLER_12_74
*1322 FILLER_12_82
*1323 FILLER_12_85
*1324 FILLER_12_97
*1325 FILLER_13_107
*1326 FILLER_13_111
*1327 FILLER_13_123
*1328 FILLER_13_135
*1329 FILLER_13_14
*1330 FILLER_13_147
*1331 FILLER_13_153
*1332 FILLER_13_157
*1333 FILLER_13_164
*1334 FILLER_13_169
*1335 FILLER_13_181
*1336 FILLER_13_193
*1337 FILLER_13_205
*1338 FILLER_13_21
*1339 FILLER_13_217
*1340 FILLER_13_223
*1341 FILLER_13_225
*1342 FILLER_13_237
*1343 FILLER_13_245
*1344 FILLER_13_258
*1345 FILLER_13_270
*1346 FILLER_13_278
*1347 FILLER_13_291
*1348 FILLER_13_30
*1349 FILLER_13_302
*1350 FILLER_13_310
*1351 FILLER_13_330
*1352 FILLER_13_337
*1353 FILLER_13_343
*1354 FILLER_13_346
*1355 FILLER_13_354
*1356 FILLER_13_364
*1357 FILLER_13_384
*1358 FILLER_13_393
*1359 FILLER_13_405
*1360 FILLER_13_42
*1361 FILLER_13_46
*1362 FILLER_13_50
*1363 FILLER_13_59
*1364 FILLER_13_6
*1365 FILLER_13_92
*1366 FILLER_14_11
*1367 FILLER_14_119
*1368 FILLER_14_126
*1369 FILLER_14_132
*1370 FILLER_14_141
*1371 FILLER_14_149
*1372 FILLER_14_157
*1373 FILLER_14_163
*1374 FILLER_14_171
*1375 FILLER_14_174
*1376 FILLER_14_186
*1377 FILLER_14_192
*1378 FILLER_14_197
*1379 FILLER_14_205
*1380 FILLER_14_21
*1381 FILLER_14_215
*1382 FILLER_14_225
*1383 FILLER_14_237
*1384 FILLER_14_249
*1385 FILLER_14_27
*1386 FILLER_14_274
*1387 FILLER_14_286
*1388 FILLER_14_29
*1389 FILLER_14_298
*1390 FILLER_14_3
*1391 FILLER_14_306
*1392 FILLER_14_309
*1393 FILLER_14_314
*1394 FILLER_14_318
*1395 FILLER_14_325
*1396 FILLER_14_334
*1397 FILLER_14_346
*1398 FILLER_14_360
*1399 FILLER_14_365
*1400 FILLER_14_384
*1401 FILLER_14_396
*1402 FILLER_14_403
*1403 FILLER_14_41
*1404 FILLER_14_61
*1405 FILLER_14_67
*1406 FILLER_14_7
*1407 FILLER_14_79
*1408 FILLER_14_83
*1409 FILLER_14_85
*1410 FILLER_14_97
*1411 FILLER_15_106
*1412 FILLER_15_113
*1413 FILLER_15_12
*1414 FILLER_15_125
*1415 FILLER_15_135
*1416 FILLER_15_139
*1417 FILLER_15_143
*1418 FILLER_15_149
*1419 FILLER_15_156
*1420 FILLER_15_162
*1421 FILLER_15_169
*1422 FILLER_15_173
*1423 FILLER_15_18
*1424 FILLER_15_191
*1425 FILLER_15_199
*1426 FILLER_15_203
*1427 FILLER_15_210
*1428 FILLER_15_222
*1429 FILLER_15_225
*1430 FILLER_15_229
*1431 FILLER_15_237
*1432 FILLER_15_241
*1433 FILLER_15_253
*1434 FILLER_15_265
*1435 FILLER_15_277
*1436 FILLER_15_28
*1437 FILLER_15_281
*1438 FILLER_15_293
*1439 FILLER_15_305
*1440 FILLER_15_309
*1441 FILLER_15_312
*1442 FILLER_15_320
*1443 FILLER_15_328
*1444 FILLER_15_337
*1445 FILLER_15_349
*1446 FILLER_15_361
*1447 FILLER_15_369
*1448 FILLER_15_381
*1449 FILLER_15_389
*1450 FILLER_15_39
*1451 FILLER_15_393
*1452 FILLER_15_405
*1453 FILLER_15_51
*1454 FILLER_15_55
*1455 FILLER_15_57
*1456 FILLER_15_6
*1457 FILLER_15_69
*1458 FILLER_15_81
*1459 FILLER_15_93
*1460 FILLER_15_99
*1461 FILLER_16_111
*1462 FILLER_16_121
*1463 FILLER_16_127
*1464 FILLER_16_132
*1465 FILLER_16_141
*1466 FILLER_16_145
*1467 FILLER_16_153
*1468 FILLER_16_161
*1469 FILLER_16_169
*1470 FILLER_16_172
*1471 FILLER_16_178
*1472 FILLER_16_192
*1473 FILLER_16_200
*1474 FILLER_16_208
*1475 FILLER_16_21
*1476 FILLER_16_215
*1477 FILLER_16_225
*1478 FILLER_16_235
*1479 FILLER_16_243
*1480 FILLER_16_247
*1481 FILLER_16_251
*1482 FILLER_16_253
*1483 FILLER_16_27
*1484 FILLER_16_280
*1485 FILLER_16_29
*1486 FILLER_16_3
*1487 FILLER_16_300
*1488 FILLER_16_311
*1489 FILLER_16_319
*1490 FILLER_16_324
*1491 FILLER_16_336
*1492 FILLER_16_342
*1493 FILLER_16_347
*1494 FILLER_16_359
*1495 FILLER_16_363
*1496 FILLER_16_365
*1497 FILLER_16_377
*1498 FILLER_16_389
*1499 FILLER_16_401
*1500 FILLER_16_41
*1501 FILLER_16_53
*1502 FILLER_16_65
*1503 FILLER_16_77
*1504 FILLER_16_83
*1505 FILLER_16_85
*1506 FILLER_16_97
*1507 FILLER_17_108
*1508 FILLER_17_113
*1509 FILLER_17_117
*1510 FILLER_17_131
*1511 FILLER_17_139
*1512 FILLER_17_151
*1513 FILLER_17_159
*1514 FILLER_17_163
*1515 FILLER_17_167
*1516 FILLER_17_169
*1517 FILLER_17_17
*1518 FILLER_17_182
*1519 FILLER_17_193
*1520 FILLER_17_200
*1521 FILLER_17_210
*1522 FILLER_17_222
*1523 FILLER_17_231
*1524 FILLER_17_243
*1525 FILLER_17_255
*1526 FILLER_17_263
*1527 FILLER_17_274
*1528 FILLER_17_284
*1529 FILLER_17_29
*1530 FILLER_17_296
*1531 FILLER_17_308
*1532 FILLER_17_315
*1533 FILLER_17_321
*1534 FILLER_17_333
*1535 FILLER_17_337
*1536 FILLER_17_349
*1537 FILLER_17_361
*1538 FILLER_17_373
*1539 FILLER_17_385
*1540 FILLER_17_391
*1541 FILLER_17_393
*1542 FILLER_17_405
*1543 FILLER_17_41
*1544 FILLER_17_5
*1545 FILLER_17_53
*1546 FILLER_17_60
*1547 FILLER_17_72
*1548 FILLER_17_84
*1549 FILLER_17_96
*1550 FILLER_18_108
*1551 FILLER_18_115
*1552 FILLER_18_121
*1553 FILLER_18_125
*1554 FILLER_18_135
*1555 FILLER_18_139
*1556 FILLER_18_14
*1557 FILLER_18_143
*1558 FILLER_18_155
*1559 FILLER_18_167
*1560 FILLER_18_179
*1561 FILLER_18_190
*1562 FILLER_18_197
*1563 FILLER_18_20
*1564 FILLER_18_202
*1565 FILLER_18_208
*1566 FILLER_18_220
*1567 FILLER_18_232
*1568 FILLER_18_239
*1569 FILLER_18_251
*1570 FILLER_18_253
*1571 FILLER_18_265
*1572 FILLER_18_272
*1573 FILLER_18_278
*1574 FILLER_18_29
*1575 FILLER_18_290
*1576 FILLER_18_302
*1577 FILLER_18_309
*1578 FILLER_18_321
*1579 FILLER_18_333
*1580 FILLER_18_345
*1581 FILLER_18_357
*1582 FILLER_18_363
*1583 FILLER_18_365
*1584 FILLER_18_375
*1585 FILLER_18_395
*1586 FILLER_18_41
*1587 FILLER_18_6
*1588 FILLER_18_66
*1589 FILLER_18_78
*1590 FILLER_18_85
*1591 FILLER_18_98
*1592 FILLER_19_100
*1593 FILLER_19_106
*1594 FILLER_19_113
*1595 FILLER_19_121
*1596 FILLER_19_135
*1597 FILLER_19_151
*1598 FILLER_19_155
*1599 FILLER_19_158
*1600 FILLER_19_166
*1601 FILLER_19_169
*1602 FILLER_19_176
*1603 FILLER_19_190
*1604 FILLER_19_201
*1605 FILLER_19_207
*1606 FILLER_19_21
*1607 FILLER_19_219
*1608 FILLER_19_223
*1609 FILLER_19_225
*1610 FILLER_19_229
*1611 FILLER_19_251
*1612 FILLER_19_263
*1613 FILLER_19_275
*1614 FILLER_19_279
*1615 FILLER_19_284
*1616 FILLER_19_296
*1617 FILLER_19_3
*1618 FILLER_19_308
*1619 FILLER_19_315
*1620 FILLER_19_327
*1621 FILLER_19_33
*1622 FILLER_19_335
*1623 FILLER_19_337
*1624 FILLER_19_349
*1625 FILLER_19_361
*1626 FILLER_19_366
*1627 FILLER_19_37
*1628 FILLER_19_372
*1629 FILLER_19_384
*1630 FILLER_19_393
*1631 FILLER_19_405
*1632 FILLER_19_41
*1633 FILLER_19_48
*1634 FILLER_19_57
*1635 FILLER_19_69
*1636 FILLER_19_77
*1637 FILLER_1_104
*1638 FILLER_1_113
*1639 FILLER_1_125
*1640 FILLER_1_147
*1641 FILLER_1_153
*1642 FILLER_1_165
*1643 FILLER_1_169
*1644 FILLER_1_17
*1645 FILLER_1_181
*1646 FILLER_1_193
*1647 FILLER_1_201
*1648 FILLER_1_213
*1649 FILLER_1_221
*1650 FILLER_1_225
*1651 FILLER_1_23
*1652 FILLER_1_233
*1653 FILLER_1_238
*1654 FILLER_1_258
*1655 FILLER_1_270
*1656 FILLER_1_278
*1657 FILLER_1_281
*1658 FILLER_1_287
*1659 FILLER_1_29
*1660 FILLER_1_291
*1661 FILLER_1_303
*1662 FILLER_1_315
*1663 FILLER_1_327
*1664 FILLER_1_335
*1665 FILLER_1_337
*1666 FILLER_1_343
*1667 FILLER_1_346
*1668 FILLER_1_366
*1669 FILLER_1_378
*1670 FILLER_1_390
*1671 FILLER_1_393
*1672 FILLER_1_405
*1673 FILLER_1_41
*1674 FILLER_1_53
*1675 FILLER_1_57
*1676 FILLER_1_7
*1677 FILLER_1_86
*1678 FILLER_1_92
*1679 FILLER_20_100
*1680 FILLER_20_108
*1681 FILLER_20_116
*1682 FILLER_20_12
*1683 FILLER_20_122
*1684 FILLER_20_125
*1685 FILLER_20_129
*1686 FILLER_20_133
*1687 FILLER_20_139
*1688 FILLER_20_141
*1689 FILLER_20_149
*1690 FILLER_20_156
*1691 FILLER_20_166
*1692 FILLER_20_176
*1693 FILLER_20_182
*1694 FILLER_20_194