*SPEF "ieee 1481-1999"
*DESIGN "UART"
*DATE "11:11:11 Fri 11 11, 1111"
*VENDOR "OpenRCX"
*PROGRAM "Parallel Extraction"
*VERSION "1.0"
*DESIGN_FLOW "NAME_SCOPE LOCAL" "PIN_CAP NONE"
*DIVIDER /
*DELIMITER :
*BUS_DELIMITER []
*T_UNIT 1 NS
*C_UNIT 1 PF
*R_UNIT 1 OHM
*L_UNIT 1 HENRY

*NAME_MAP
*1 clk
*2 peripheralBus_address[0]
*3 peripheralBus_address[10]
*4 peripheralBus_address[11]
*5 peripheralBus_address[12]
*6 peripheralBus_address[13]
*7 peripheralBus_address[14]
*8 peripheralBus_address[15]
*9 peripheralBus_address[16]
*10 peripheralBus_address[17]
*11 peripheralBus_address[18]
*12 peripheralBus_address[19]
*13 peripheralBus_address[1]
*14 peripheralBus_address[20]
*15 peripheralBus_address[21]
*16 peripheralBus_address[22]
*17 peripheralBus_address[23]
*18 peripheralBus_address[2]
*19 peripheralBus_address[3]
*20 peripheralBus_address[4]
*21 peripheralBus_address[5]
*22 peripheralBus_address[6]
*23 peripheralBus_address[7]
*24 peripheralBus_address[8]
*25 peripheralBus_address[9]
*26 net1
*27 peripheralBus_data[0]
*28 peripheralBus_data[10]
*29 peripheralBus_data[11]
*30 peripheralBus_data[12]
*31 peripheralBus_data[13]
*32 peripheralBus_data[14]
*33 peripheralBus_data[15]
*34 peripheralBus_data[16]
*35 peripheralBus_data[17]
*36 peripheralBus_data[18]
*37 peripheralBus_data[19]
*38 peripheralBus_data[1]
*39 peripheralBus_data[20]
*40 peripheralBus_data[21]
*41 peripheralBus_data[22]
*42 peripheralBus_data[23]
*43 peripheralBus_data[24]
*44 peripheralBus_data[25]
*45 peripheralBus_data[26]
*46 peripheralBus_data[27]
*47 peripheralBus_data[28]
*48 peripheralBus_data[29]
*49 peripheralBus_data[2]
*50 peripheralBus_data[30]
*51 peripheralBus_data[31]
*52 peripheralBus_data[3]
*53 peripheralBus_data[4]
*54 peripheralBus_data[5]
*55 peripheralBus_data[6]
*56 peripheralBus_data[7]
*57 peripheralBus_data[8]
*58 peripheralBus_data[9]
*59 peripheralBus_oe
*60 peripheralBus_we
*61 rst
*62 net2
*63 net3
*64 net4
*65 net5
*66 net6
*67 net7
*68 net8
*69 net9
*70 net10
*71 net11
*72 net12
*73 net13
*74 FILLER_0_109
*75 FILLER_0_113
*76 FILLER_0_125
*77 FILLER_0_137
*78 FILLER_0_141
*79 FILLER_0_153
*80 FILLER_0_165
*81 FILLER_0_169
*82 FILLER_0_18
*83 FILLER_0_181
*84 FILLER_0_193
*85 FILLER_0_197
*86 FILLER_0_209
*87 FILLER_0_221
*88 FILLER_0_225
*89 FILLER_0_237
*90 FILLER_0_249
*91 FILLER_0_253
*92 FILLER_0_26
*93 FILLER_0_265
*94 FILLER_0_277
*95 FILLER_0_281
*96 FILLER_0_29
*97 FILLER_0_293
*98 FILLER_0_305
*99 FILLER_0_309
*100 FILLER_0_321
*101 FILLER_0_333
*102 FILLER_0_337
*103 FILLER_0_349
*104 FILLER_0_361
*105 FILLER_0_365
*106 FILLER_0_377
*107 FILLER_0_389
*108 FILLER_0_393
*109 FILLER_0_405
*110 FILLER_0_41
*111 FILLER_0_417
*112 FILLER_0_421
*113 FILLER_0_433
*114 FILLER_0_445
*115 FILLER_0_449
*116 FILLER_0_461
*117 FILLER_0_473
*118 FILLER_0_477
*119 FILLER_0_489
*120 FILLER_0_501
*121 FILLER_0_505
*122 FILLER_0_517
*123 FILLER_0_529
*124 FILLER_0_53
*125 FILLER_0_533
*126 FILLER_0_545
*127 FILLER_0_557
*128 FILLER_0_561
*129 FILLER_0_57
*130 FILLER_0_573
*131 FILLER_0_585
*132 FILLER_0_589
*133 FILLER_0_6
*134 FILLER_0_601
*135 FILLER_0_613
*136 FILLER_0_617
*137 FILLER_0_629
*138 FILLER_0_641
*139 FILLER_0_645
*140 FILLER_0_657
*141 FILLER_0_669
*142 FILLER_0_673
*143 FILLER_0_685
*144 FILLER_0_69
*145 FILLER_0_697
*146 FILLER_0_701
*147 FILLER_0_713
*148 FILLER_0_725
*149 FILLER_0_729
*150 FILLER_0_81
*151 FILLER_0_85
*152 FILLER_0_97
*153 FILLER_100_109
*154 FILLER_100_121
*155 FILLER_100_133
*156 FILLER_100_139
*157 FILLER_100_141
*158 FILLER_100_15
*159 FILLER_100_153
*160 FILLER_100_165
*161 FILLER_100_177
*162 FILLER_100_189
*163 FILLER_100_195
*164 FILLER_100_197
*165 FILLER_100_209
*166 FILLER_100_221
*167 FILLER_100_233
*168 FILLER_100_245
*169 FILLER_100_251
*170 FILLER_100_253
*171 FILLER_100_265
*172 FILLER_100_27
*173 FILLER_100_277
*174 FILLER_100_289
*175 FILLER_100_29
*176 FILLER_100_3
*177 FILLER_100_301
*178 FILLER_100_307
*179 FILLER_100_309
*180 FILLER_100_321
*181 FILLER_100_333
*182 FILLER_100_345
*183 FILLER_100_357
*184 FILLER_100_363
*185 FILLER_100_365
*186 FILLER_100_377
*187 FILLER_100_389
*188 FILLER_100_401
*189 FILLER_100_41
*190 FILLER_100_413
*191 FILLER_100_419
*192 FILLER_100_421
*193 FILLER_100_433
*194 FILLER_100_445
*195 FILLER_100_457
*196 FILLER_100_469
*197 FILLER_100_475
*198 FILLER_100_477
*199 FILLER_100_489
*200 FILLER_100_501
*201 FILLER_100_513
*202 FILLER_100_525
*203 FILLER_100_53
*204 FILLER_100_531
*205 FILLER_100_533
*206 FILLER_100_545
*207 FILLER_100_557
*208 FILLER_100_569
*209 FILLER_100_581
*210 FILLER_100_587
*211 FILLER_100_589
*212 FILLER_100_601
*213 FILLER_100_613
*214 FILLER_100_625
*215 FILLER_100_637
*216 FILLER_100_643
*217 FILLER_100_645
*218 FILLER_100_65
*219 FILLER_100_657
*220 FILLER_100_669
*221 FILLER_100_681
*222 FILLER_100_693
*223 FILLER_100_699
*224 FILLER_100_701
*225 FILLER_100_713
*226 FILLER_100_725
*227 FILLER_100_77
*228 FILLER_100_83
*229 FILLER_100_85
*230 FILLER_100_97
*231 FILLER_101_105
*232 FILLER_101_111
*233 FILLER_101_113
*234 FILLER_101_125
*235 FILLER_101_137
*236 FILLER_101_149
*237 FILLER_101_15
*238 FILLER_101_161
*239 FILLER_101_167
*240 FILLER_101_169
*241 FILLER_101_181
*242 FILLER_101_193
*243 FILLER_101_205
*244 FILLER_101_217
*245 FILLER_101_223
*246 FILLER_101_225
*247 FILLER_101_237
*248 FILLER_101_249
*249 FILLER_101_261
*250 FILLER_101_27
*251 FILLER_101_273
*252 FILLER_101_279
*253 FILLER_101_281
*254 FILLER_101_293
*255 FILLER_101_3
*256 FILLER_101_305
*257 FILLER_101_317
*258 FILLER_101_329
*259 FILLER_101_335
*260 FILLER_101_337
*261 FILLER_101_349
*262 FILLER_101_361
*263 FILLER_101_373
*264 FILLER_101_385
*265 FILLER_101_39
*266 FILLER_101_391
*267 FILLER_101_393
*268 FILLER_101_405
*269 FILLER_101_417
*270 FILLER_101_429
*271 FILLER_101_441
*272 FILLER_101_447
*273 FILLER_101_449
*274 FILLER_101_461
*275 FILLER_101_473
*276 FILLER_101_485
*277 FILLER_101_497
*278 FILLER_101_503
*279 FILLER_101_505
*280 FILLER_101_51
*281 FILLER_101_517
*282 FILLER_101_529
*283 FILLER_101_541
*284 FILLER_101_55
*285 FILLER_101_553
*286 FILLER_101_559
*287 FILLER_101_561
*288 FILLER_101_57
*289 FILLER_101_573
*290 FILLER_101_585
*291 FILLER_101_597
*292 FILLER_101_609
*293 FILLER_101_615
*294 FILLER_101_617
*295 FILLER_101_629
*296 FILLER_101_641
*297 FILLER_101_653
*298 FILLER_101_665
*299 FILLER_101_671
*300 FILLER_101_673
*301 FILLER_101_685
*302 FILLER_101_69
*303 FILLER_101_697
*304 FILLER_101_709
*305 FILLER_101_721
*306 FILLER_101_727
*307 FILLER_101_729
*308 FILLER_101_81
*309 FILLER_101_93
*310 FILLER_102_109
*311 FILLER_102_121
*312 FILLER_102_133
*313 FILLER_102_139
*314 FILLER_102_141
*315 FILLER_102_15
*316 FILLER_102_153
*317 FILLER_102_165
*318 FILLER_102_177
*319 FILLER_102_189
*320 FILLER_102_195
*321 FILLER_102_197
*322 FILLER_102_209
*323 FILLER_102_221
*324 FILLER_102_233
*325 FILLER_102_245
*326 FILLER_102_251
*327 FILLER_102_253
*328 FILLER_102_265
*329 FILLER_102_27
*330 FILLER_102_277
*331 FILLER_102_289
*332 FILLER_102_29
*333 FILLER_102_3
*334 FILLER_102_301
*335 FILLER_102_307
*336 FILLER_102_309
*337 FILLER_102_321
*338 FILLER_102_333
*339 FILLER_102_345
*340 FILLER_102_357
*341 FILLER_102_363
*342 FILLER_102_365
*343 FILLER_102_377
*344 FILLER_102_389
*345 FILLER_102_401
*346 FILLER_102_41
*347 FILLER_102_413
*348 FILLER_102_419
*349 FILLER_102_421
*350 FILLER_102_433
*351 FILLER_102_445
*352 FILLER_102_457
*353 FILLER_102_469
*354 FILLER_102_475
*355 FILLER_102_477
*356 FILLER_102_489
*357 FILLER_102_501
*358 FILLER_102_513
*359 FILLER_102_525
*360 FILLER_102_53
*361 FILLER_102_531
*362 FILLER_102_533
*363 FILLER_102_545
*364 FILLER_102_557
*365 FILLER_102_569
*366 FILLER_102_581
*367 FILLER_102_587
*368 FILLER_102_589
*369 FILLER_102_601
*370 FILLER_102_613
*371 FILLER_102_625
*372 FILLER_102_637
*373 FILLER_102_643
*374 FILLER_102_645
*375 FILLER_102_65
*376 FILLER_102_657
*377 FILLER_102_669
*378 FILLER_102_681
*379 FILLER_102_693
*380 FILLER_102_699
*381 FILLER_102_701
*382 FILLER_102_713
*383 FILLER_102_725
*384 FILLER_102_77
*385 FILLER_102_83
*386 FILLER_102_85
*387 FILLER_102_97
*388 FILLER_103_105
*389 FILLER_103_111
*390 FILLER_103_113
*391 FILLER_103_125
*392 FILLER_103_137
*393 FILLER_103_149
*394 FILLER_103_15
*395 FILLER_103_161
*396 FILLER_103_167
*397 FILLER_103_169
*398 FILLER_103_181
*399 FILLER_103_193
*400 FILLER_103_205
*401 FILLER_103_217
*402 FILLER_103_223
*403 FILLER_103_225
*404 FILLER_103_237
*405 FILLER_103_249
*406 FILLER_103_261
*407 FILLER_103_27
*408 FILLER_103_273
*409 FILLER_103_279
*410 FILLER_103_281
*411 FILLER_103_293
*412 FILLER_103_3
*413 FILLER_103_305
*414 FILLER_103_317
*415 FILLER_103_329
*416 FILLER_103_335
*417 FILLER_103_337
*418 FILLER_103_349
*419 FILLER_103_361
*420 FILLER_103_373
*421 FILLER_103_385
*422 FILLER_103_39
*423 FILLER_103_391
*424 FILLER_103_393
*425 FILLER_103_405
*426 FILLER_103_417
*427 FILLER_103_429
*428 FILLER_103_441
*429 FILLER_103_447
*430 FILLER_103_449
*431 FILLER_103_461
*432 FILLER_103_473
*433 FILLER_103_485
*434 FILLER_103_497
*435 FILLER_103_503
*436 FILLER_103_505
*437 FILLER_103_51
*438 FILLER_103_517
*439 FILLER_103_529
*440 FILLER_103_541
*441 FILLER_103_55
*442 FILLER_103_553
*443 FILLER_103_559
*444 FILLER_103_561
*445 FILLER_103_57
*446 FILLER_103_573
*447 FILLER_103_585
*448 FILLER_103_597
*449 FILLER_103_609
*450 FILLER_103_615
*451 FILLER_103_617
*452 FILLER_103_629
*453 FILLER_103_641
*454 FILLER_103_653
*455 FILLER_103_665
*456 FILLER_103_671
*457 FILLER_103_673
*458 FILLER_103_685
*459 FILLER_103_69
*460 FILLER_103_697
*461 FILLER_103_709
*462 FILLER_103_721
*463 FILLER_103_727
*464 FILLER_103_729
*465 FILLER_103_81
*466 FILLER_103_93
*467 FILLER_104_109
*468 FILLER_104_121
*469 FILLER_104_133
*470 FILLER_104_139
*471 FILLER_104_141
*472 FILLER_104_15
*473 FILLER_104_153
*474 FILLER_104_165
*475 FILLER_104_177
*476 FILLER_104_189
*477 FILLER_104_195
*478 FILLER_104_197
*479 FILLER_104_209
*480 FILLER_104_221
*481 FILLER_104_233
*482 FILLER_104_245
*483 FILLER_104_251
*484 FILLER_104_253
*485 FILLER_104_265
*486 FILLER_104_27
*487 FILLER_104_277
*488 FILLER_104_289
*489 FILLER_104_29
*490 FILLER_104_3
*491 FILLER_104_301
*492 FILLER_104_307
*493 FILLER_104_309
*494 FILLER_104_321
*495 FILLER_104_333
*496 FILLER_104_345
*497 FILLER_104_357
*498 FILLER_104_363
*499 FILLER_104_365
*500 FILLER_104_377
*501 FILLER_104_389
*502 FILLER_104_401
*503 FILLER_104_41
*504 FILLER_104_413
*505 FILLER_104_419
*506 FILLER_104_421
*507 FILLER_104_433
*508 FILLER_104_445
*509 FILLER_104_457
*510 FILLER_104_469
*511 FILLER_104_475
*512 FILLER_104_477
*513 FILLER_104_489
*514 FILLER_104_501
*515 FILLER_104_513
*516 FILLER_104_525
*517 FILLER_104_53
*518 FILLER_104_531
*519 FILLER_104_533
*520 FILLER_104_545
*521 FILLER_104_557
*522 FILLER_104_569
*523 FILLER_104_581
*524 FILLER_104_587
*525 FILLER_104_589
*526 FILLER_104_601
*527 FILLER_104_613
*528 FILLER_104_625
*529 FILLER_104_637
*530 FILLER_104_643
*531 FILLER_104_645
*532 FILLER_104_65
*533 FILLER_104_657
*534 FILLER_104_669
*535 FILLER_104_681
*536 FILLER_104_693
*537 FILLER_104_699
*538 FILLER_104_701
*539 FILLER_104_713
*540 FILLER_104_725
*541 FILLER_104_77
*542 FILLER_104_83
*543 FILLER_104_85
*544 FILLER_104_97
*545 FILLER_105_105
*546 FILLER_105_111
*547 FILLER_105_113
*548 FILLER_105_125
*549 FILLER_105_137
*550 FILLER_105_149
*551 FILLER_105_15
*552 FILLER_105_161
*553 FILLER_105_167
*554 FILLER_105_169
*555 FILLER_105_181
*556 FILLER_105_193
*557 FILLER_105_205
*558 FILLER_105_217
*559 FILLER_105_223
*560 FILLER_105_225
*561 FILLER_105_237
*562 FILLER_105_249
*563 FILLER_105_261
*564 FILLER_105_27
*565 FILLER_105_273
*566 FILLER_105_279
*567 FILLER_105_281
*568 FILLER_105_293
*569 FILLER_105_3
*570 FILLER_105_305
*571 FILLER_105_317
*572 FILLER_105_329
*573 FILLER_105_335
*574 FILLER_105_337
*575 FILLER_105_349
*576 FILLER_105_361
*577 FILLER_105_373
*578 FILLER_105_385
*579 FILLER_105_39
*580 FILLER_105_391
*581 FILLER_105_393
*582 FILLER_105_405
*583 FILLER_105_417
*584 FILLER_105_429
*585 FILLER_105_441
*586 FILLER_105_447
*587 FILLER_105_449
*588 FILLER_105_461
*589 FILLER_105_473
*590 FILLER_105_485
*591 FILLER_105_497
*592 FILLER_105_503
*593 FILLER_105_505
*594 FILLER_105_51
*595 FILLER_105_517
*596 FILLER_105_529
*597 FILLER_105_541
*598 FILLER_105_55
*599 FILLER_105_553
*600 FILLER_105_559
*601 FILLER_105_561
*602 FILLER_105_57
*603 FILLER_105_573
*604 FILLER_105_585
*605 FILLER_105_597
*606 FILLER_105_609
*607 FILLER_105_615
*608 FILLER_105_617
*609 FILLER_105_629
*610 FILLER_105_641
*611 FILLER_105_653
*612 FILLER_105_665
*613 FILLER_105_671
*614 FILLER_105_673
*615 FILLER_105_685
*616 FILLER_105_69
*617 FILLER_105_697
*618 FILLER_105_709
*619 FILLER_105_721
*620 FILLER_105_727
*621 FILLER_105_729
*622 FILLER_105_81
*623 FILLER_105_93
*624 FILLER_106_109
*625 FILLER_106_121
*626 FILLER_106_133
*627 FILLER_106_139
*628 FILLER_106_141
*629 FILLER_106_15
*630 FILLER_106_153
*631 FILLER_106_165
*632 FILLER_106_177
*633 FILLER_106_189
*634 FILLER_106_195
*635 FILLER_106_197
*636 FILLER_106_209
*637 FILLER_106_221
*638 FILLER_106_233
*639 FILLER_106_245
*640 FILLER_106_251
*641 FILLER_106_253
*642 FILLER_106_265
*643 FILLER_106_27
*644 FILLER_106_277
*645 FILLER_106_289
*646 FILLER_106_29
*647 FILLER_106_3
*648 FILLER_106_301
*649 FILLER_106_307
*650 FILLER_106_309
*651 FILLER_106_321
*652 FILLER_106_333
*653 FILLER_106_345
*654 FILLER_106_357
*655 FILLER_106_363
*656 FILLER_106_365
*657 FILLER_106_377
*658 FILLER_106_389
*659 FILLER_106_401
*660 FILLER_106_41
*661 FILLER_106_413
*662 FILLER_106_419
*663 FILLER_106_421
*664 FILLER_106_433
*665 FILLER_106_445
*666 FILLER_106_457
*667 FILLER_106_469
*668 FILLER_106_475
*669 FILLER_106_477
*670 FILLER_106_489
*671 FILLER_106_501
*672 FILLER_106_513
*673 FILLER_106_525
*674 FILLER_106_53
*675 FILLER_106_531
*676 FILLER_106_533
*677 FILLER_106_545
*678 FILLER_106_557
*679 FILLER_106_569
*680 FILLER_106_581
*681 FILLER_106_587
*682 FILLER_106_589
*683 FILLER_106_601
*684 FILLER_106_613
*685 FILLER_106_625
*686 FILLER_106_637
*687 FILLER_106_643
*688 FILLER_106_645
*689 FILLER_106_65
*690 FILLER_106_657
*691 FILLER_106_669
*692 FILLER_106_681
*693 FILLER_106_693
*694 FILLER_106_699
*695 FILLER_106_701
*696 FILLER_106_713
*697 FILLER_106_725
*698 FILLER_106_77
*699 FILLER_106_83
*700 FILLER_106_85
*701 FILLER_106_97
*702 FILLER_107_105
*703 FILLER_107_111
*704 FILLER_107_113
*705 FILLER_107_125
*706 FILLER_107_137
*707 FILLER_107_149
*708 FILLER_107_15
*709 FILLER_107_161
*710 FILLER_107_167
*711 FILLER_107_169
*712 FILLER_107_181
*713 FILLER_107_193
*714 FILLER_107_205
*715 FILLER_107_217
*716 FILLER_107_223
*717 FILLER_107_225
*718 FILLER_107_237
*719 FILLER_107_249
*720 FILLER_107_261
*721 FILLER_107_27
*722 FILLER_107_273
*723 FILLER_107_279
*724 FILLER_107_281
*725 FILLER_107_293
*726 FILLER_107_3
*727 FILLER_107_305
*728 FILLER_107_317
*729 FILLER_107_329
*730 FILLER_107_335
*731 FILLER_107_337
*732 FILLER_107_349
*733 FILLER_107_361
*734 FILLER_107_373
*735 FILLER_107_385
*736 FILLER_107_39
*737 FILLER_107_391
*738 FILLER_107_393
*739 FILLER_107_405
*740 FILLER_107_417
*741 FILLER_107_429
*742 FILLER_107_441
*743 FILLER_107_447
*744 FILLER_107_449
*745 FILLER_107_461
*746 FILLER_107_473
*747 FILLER_107_485
*748 FILLER_107_497
*749 FILLER_107_503
*750 FILLER_107_505
*751 FILLER_107_51
*752 FILLER_107_517
*753 FILLER_107_529
*754 FILLER_107_541
*755 FILLER_107_55
*756 FILLER_107_553
*757 FILLER_107_559
*758 FILLER_107_561
*759 FILLER_107_57
*760 FILLER_107_573
*761 FILLER_107_585
*762 FILLER_107_597
*763 FILLER_107_609
*764 FILLER_107_615
*765 FILLER_107_617
*766 FILLER_107_629
*767 FILLER_107_641
*768 FILLER_107_653
*769 FILLER_107_665
*770 FILLER_107_671
*771 FILLER_107_673
*772 FILLER_107_685
*773 FILLER_107_69
*774 FILLER_107_697
*775 FILLER_107_709
*776 FILLER_107_721
*777 FILLER_107_727
*778 FILLER_107_729
*779 FILLER_107_81
*780 FILLER_107_93
*781 FILLER_108_109
*782 FILLER_108_121
*783 FILLER_108_133
*784 FILLER_108_139
*785 FILLER_108_141
*786 FILLER_108_15
*787 FILLER_108_153
*788 FILLER_108_165
*789 FILLER_108_177
*790 FILLER_108_189
*791 FILLER_108_195
*792 FILLER_108_197
*793 FILLER_108_209
*794 FILLER_108_221
*795 FILLER_108_233
*796 FILLER_108_245
*797 FILLER_108_251
*798 FILLER_108_253
*799 FILLER_108_265
*800 FILLER_108_27
*801 FILLER_108_277
*802 FILLER_108_289
*803 FILLER_108_29
*804 FILLER_108_3
*805 FILLER_108_301
*806 FILLER_108_307
*807 FILLER_108_309
*808 FILLER_108_321
*809 FILLER_108_333
*810 FILLER_108_345
*811 FILLER_108_357
*812 FILLER_108_363
*813 FILLER_108_365
*814 FILLER_108_377
*815 FILLER_108_389
*816 FILLER_108_401
*817 FILLER_108_41
*818 FILLER_108_413
*819 FILLER_108_419
*820 FILLER_108_421
*821 FILLER_108_433
*822 FILLER_108_445
*823 FILLER_108_457
*824 FILLER_108_469
*825 FILLER_108_475
*826 FILLER_108_477
*827 FILLER_108_489
*828 FILLER_108_501
*829 FILLER_108_513
*830 FILLER_108_525
*831 FILLER_108_53
*832 FILLER_108_531
*833 FILLER_108_533
*834 FILLER_108_545
*835 FILLER_108_557
*836 FILLER_108_569
*837 FILLER_108_581
*838 FILLER_108_587
*839 FILLER_108_589
*840 FILLER_108_601
*841 FILLER_108_613
*842 FILLER_108_625
*843 FILLER_108_637
*844 FILLER_108_643
*845 FILLER_108_645
*846 FILLER_108_65
*847 FILLER_108_657
*848 FILLER_108_669
*849 FILLER_108_681
*850 FILLER_108_693
*851 FILLER_108_699
*852 FILLER_108_701
*853 FILLER_108_713
*854 FILLER_108_725
*855 FILLER_108_77
*856 FILLER_108_83
*857 FILLER_108_85
*858 FILLER_108_97
*859 FILLER_109_105
*860 FILLER_109_111
*861 FILLER_109_113
*862 FILLER_109_125
*863 FILLER_109_137
*864 FILLER_109_149
*865 FILLER_109_15
*866 FILLER_109_161
*867 FILLER_109_167
*868 FILLER_109_169
*869 FILLER_109_181
*870 FILLER_109_193
*871 FILLER_109_205
*872 FILLER_109_217
*873 FILLER_109_223
*874 FILLER_109_225
*875 FILLER_109_237
*876 FILLER_109_249
*877 FILLER_109_261
*878 FILLER_109_27
*879 FILLER_109_273
*880 FILLER_109_279
*881 FILLER_109_281
*882 FILLER_109_293
*883 FILLER_109_3
*884 FILLER_109_305
*885 FILLER_109_317
*886 FILLER_109_329
*887 FILLER_109_335
*888 FILLER_109_337
*889 FILLER_109_349
*890 FILLER_109_361
*891 FILLER_109_373
*892 FILLER_109_385
*893 FILLER_109_39
*894 FILLER_109_391
*895 FILLER_109_393
*896 FILLER_109_405
*897 FILLER_109_417
*898 FILLER_109_429
*899 FILLER_109_441
*900 FILLER_109_447
*901 FILLER_109_449
*902 FILLER_109_461
*903 FILLER_109_473
*904 FILLER_109_485
*905 FILLER_109_497
*906 FILLER_109_503
*907 FILLER_109_505
*908 FILLER_109_51
*909 FILLER_109_517
*910 FILLER_109_529
*911 FILLER_109_541
*912 FILLER_109_55
*913 FILLER_109_553
*914 FILLER_109_559
*915 FILLER_109_561
*916 FILLER_109_57
*917 FILLER_109_573
*918 FILLER_109_585
*919 FILLER_109_597
*920 FILLER_109_609
*921 FILLER_109_615
*922 FILLER_109_617
*923 FILLER_109_629
*924 FILLER_109_641
*925 FILLER_109_653
*926 FILLER_109_665
*927 FILLER_109_671
*928 FILLER_109_673
*929 FILLER_109_685
*930 FILLER_109_69
*931 FILLER_109_697
*932 FILLER_109_709
*933 FILLER_109_724
*934 FILLER_109_729
*935 FILLER_109_81
*936 FILLER_109_93
*937 FILLER_10_109
*938 FILLER_10_121
*939 FILLER_10_133
*940 FILLER_10_139
*941 FILLER_10_141
*942 FILLER_10_15
*943 FILLER_10_153
*944 FILLER_10_165
*945 FILLER_10_177
*946 FILLER_10_189
*947 FILLER_10_195
*948 FILLER_10_197
*949 FILLER_10_209
*950 FILLER_10_221
*951 FILLER_10_233
*952 FILLER_10_245
*953 FILLER_10_251
*954 FILLER_10_253
*955 FILLER_10_265
*956 FILLER_10_27
*957 FILLER_10_277
*958 FILLER_10_289
*959 FILLER_10_29
*960 FILLER_10_3
*961 FILLER_10_301
*962 FILLER_10_307
*963 FILLER_10_309
*964 FILLER_10_321
*965 FILLER_10_333
*966 FILLER_10_345
*967 FILLER_10_357
*968 FILLER_10_363
*969 FILLER_10_365
*970 FILLER_10_377
*971 FILLER_10_389
*972 FILLER_10_401
*973 FILLER_10_41
*974 FILLER_10_413
*975 FILLER_10_419
*976 FILLER_10_421
*977 FILLER_10_433
*978 FILLER_10_445
*979 FILLER_10_457
*980 FILLER_10_469
*981 FILLER_10_475
*982 FILLER_10_477
*983 FILLER_10_489
*984 FILLER_10_501
*985 FILLER_10_513
*986 FILLER_10_525
*987 FILLER_10_53
*988 FILLER_10_531
*989 FILLER_10_533
*990 FILLER_10_545
*991 FILLER_10_557
*992 FILLER_10_569
*993 FILLER_10_581
*994 FILLER_10_587
*995 FILLER_10_589
*996 FILLER_10_601
*997 FILLER_10_613
*998 FILLER_10_625
*999 FILLER_10_637
*1000 FILLER_10_643
*1001 FILLER_10_645
*1002 FILLER_10_65
*1003 FILLER_10_657
*1004 FILLER_10_669
*1005 FILLER_10_681
*1006 FILLER_10_693
*1007 FILLER_10_699
*1008 FILLER_10_701
*1009 FILLER_10_713
*1010 FILLER_10_725
*1011 FILLER_10_77
*1012 FILLER_10_83
*1013 FILLER_10_85
*1014 FILLER_10_97
*1015 FILLER_110_109
*1016 FILLER_110_121
*1017 FILLER_110_133
*1018 FILLER_110_139
*1019 FILLER_110_141
*1020 FILLER_110_15
*1021 FILLER_110_153
*1022 FILLER_110_165
*1023 FILLER_110_177
*1024 FILLER_110_189
*1025 FILLER_110_195
*1026 FILLER_110_197
*1027 FILLER_110_209
*1028 FILLER_110_221
*1029 FILLER_110_233
*1030 FILLER_110_245
*1031 FILLER_110_251
*1032 FILLER_110_253
*1033 FILLER_110_265
*1034 FILLER_110_27
*1035 FILLER_110_277
*1036 FILLER_110_289
*1037 FILLER_110_29
*1038 FILLER_110_3
*1039 FILLER_110_301
*1040 FILLER_110_307
*1041 FILLER_110_309
*1042 FILLER_110_321
*1043 FILLER_110_333
*1044 FILLER_110_345
*1045 FILLER_110_357
*1046 FILLER_110_363
*1047 FILLER_110_365
*1048 FILLER_110_377
*1049 FILLER_110_389
*1050 FILLER_110_401
*1051 FILLER_110_41
*1052 FILLER_110_413
*1053 FILLER_110_419
*1054 FILLER_110_421
*1055 FILLER_110_433
*1056 FILLER_110_445
*1057 FILLER_110_457
*1058 FILLER_110_469
*1059 FILLER_110_475
*1060 FILLER_110_477
*1061 FILLER_110_489
*1062 FILLER_110_501
*1063 FILLER_110_513
*1064 FILLER_110_525
*1065 FILLER_110_53
*1066 FILLER_110_531
*1067 FILLER_110_533
*1068 FILLER_110_545
*1069 FILLER_110_557
*1070 FILLER_110_569
*1071 FILLER_110_581
*1072 FILLER_110_587
*1073 FILLER_110_589
*1074 FILLER_110_601
*1075 FILLER_110_613
*1076 FILLER_110_625
*1077 FILLER_110_637
*1078 FILLER_110_643
*1079 FILLER_110_645
*1080 FILLER_110_65
*1081 FILLER_110_657
*1082 FILLER_110_669
*1083 FILLER_110_681
*1084 FILLER_110_693
*1085 FILLER_110_699
*1086 FILLER_110_701
*1087 FILLER_110_713
*1088 FILLER_110_725
*1089 FILLER_110_77
*1090 FILLER_110_83
*1091 FILLER_110_85
*1092 FILLER_110_97
*1093 FILLER_111_105
*1094 FILLER_111_111
*1095 FILLER_111_113
*1096 FILLER_111_125
*1097 FILLER_111_137
*1098 FILLER_111_149
*1099 FILLER_111_15
*1100 FILLER_111_161
*1101 FILLER_111_167
*1102 FILLER_111_169
*1103 FILLER_111_181
*1104 FILLER_111_193
*1105 FILLER_111_205
*1106 FILLER_111_217
*1107 FILLER_111_223
*1108 FILLER_111_225
*1109 FILLER_111_237
*1110 FILLER_111_249
*1111 FILLER_111_261
*1112 FILLER_111_27
*1113 FILLER_111_273
*1114 FILLER_111_279
*1115 FILLER_111_281
*1116 FILLER_111_293
*1117 FILLER_111_3
*1118 FILLER_111_305
*1119 FILLER_111_317
*1120 FILLER_111_329
*1121 FILLER_111_335
*1122 FILLER_111_337
*1123 FILLER_111_349
*1124 FILLER_111_361
*1125 FILLER_111_373
*1126 FILLER_111_385
*1127 FILLER_111_39
*1128 FILLER_111_391
*1129 FILLER_111_393
*1130 FILLER_111_405
*1131 FILLER_111_417
*1132 FILLER_111_429
*1133 FILLER_111_441
*1134 FILLER_111_447
*1135 FILLER_111_449
*1136 FILLER_111_461
*1137 FILLER_111_473
*1138 FILLER_111_485
*1139 FILLER_111_497
*1140 FILLER_111_503
*1141 FILLER_111_505
*1142 FILLER_111_51
*1143 FILLER_111_517
*1144 FILLER_111_529
*1145 FILLER_111_541
*1146 FILLER_111_55
*1147 FILLER_111_553
*1148 FILLER_111_559
*1149 FILLER_111_561
*1150 FILLER_111_57
*1151 FILLER_111_573
*1152 FILLER_111_585
*1153 FILLER_111_597
*1154 FILLER_111_609
*1155 FILLER_111_615
*1156 FILLER_111_617
*1157 FILLER_111_629
*1158 FILLER_111_641
*1159 FILLER_111_653
*1160 FILLER_111_665
*1161 FILLER_111_671
*1162 FILLER_111_673
*1163 FILLER_111_685
*1164 FILLER_111_69
*1165 FILLER_111_697
*1166 FILLER_111_709
*1167 FILLER_111_721
*1168 FILLER_111_727
*1169 FILLER_111_729
*1170 FILLER_111_81
*1171 FILLER_111_93
*1172 FILLER_112_109
*1173 FILLER_112_121
*1174 FILLER_112_133
*1175 FILLER_112_139
*1176 FILLER_112_141
*1177 FILLER_112_15
*1178 FILLER_112_153
*1179 FILLER_112_165
*1180 FILLER_112_177
*1181 FILLER_112_189
*1182 FILLER_112_195
*1183 FILLER_112_197
*1184 FILLER_112_209
*1185 FILLER_112_221
*1186 FILLER_112_233
*1187 FILLER_112_245
*1188 FILLER_112_251
*1189 FILLER_112_253
*1190 FILLER_112_265
*1191 FILLER_112_27
*1192 FILLER_112_277
*1193 FILLER_112_289
*1194 FILLER_112_29
*1195 FILLER_112_3
*1196 FILLER_112_301
*1197 FILLER_112_307
*1198 FILLER_112_309
*1199 FILLER_112_321
*1200 FILLER_112_333
*1201 FILLER_112_345
*1202 FILLER_112_357
*1203 FILLER_112_363
*1204 FILLER_112_365
*1205 FILLER_112_377
*1206 FILLER_112_389
*1207 FILLER_112_401
*1208 FILLER_112_41
*1209 FILLER_112_413
*1210 FILLER_112_419
*1211 FILLER_112_421
*1212 FILLER_112_433
*1213 FILLER_112_445
*1214 FILLER_112_457
*1215 FILLER_112_469
*1216 FILLER_112_475
*1217 FILLER_112_477
*1218 FILLER_112_489
*1219 FILLER_112_501
*1220 FILLER_112_513
*1221 FILLER_112_525
*1222 FILLER_112_53
*1223 FILLER_112_531
*1224 FILLER_112_533
*1225 FILLER_112_545
*1226 FILLER_112_557
*1227 FILLER_112_569
*1228 FILLER_112_581
*1229 FILLER_112_587
*1230 FILLER_112_589
*1231 FILLER_112_601
*1232 FILLER_112_613
*1233 FILLER_112_625
*1234 FILLER_112_637
*1235 FILLER_112_643
*1236 FILLER_112_645
*1237 FILLER_112_65
*1238 FILLER_112_657
*1239 FILLER_112_669
*1240 FILLER_112_681
*1241 FILLER_112_693
*1242 FILLER_112_699
*1243 FILLER_112_701
*1244 FILLER_112_713
*1245 FILLER_112_725
*1246 FILLER_112_77
*1247 FILLER_112_83
*1248 FILLER_112_85
*1249 FILLER_112_97
*1250 FILLER_113_105
*1251 FILLER_113_111
*1252 FILLER_113_113
*1253 FILLER_113_125
*1254 FILLER_113_137
*1255 FILLER_113_149
*1256 FILLER_113_15
*1257 FILLER_113_161
*1258 FILLER_113_167
*1259 FILLER_113_169
*1260 FILLER_113_181
*1261 FILLER_113_193
*1262 FILLER_113_205
*1263 FILLER_113_217
*1264 FILLER_113_223
*1265 FILLER_113_225
*1266 FILLER_113_237
*1267 FILLER_113_249
*1268 FILLER_113_261
*1269 FILLER_113_27
*1270 FILLER_113_273
*1271 FILLER_113_279
*1272 FILLER_113_281
*1273 FILLER_113_293
*1274 FILLER_113_3
*1275 FILLER_113_305
*1276 FILLER_113_317
*1277 FILLER_113_329
*1278 FILLER_113_335
*1279 FILLER_113_337
*1280 FILLER_113_349
*1281 FILLER_113_361
*1282 FILLER_113_373
*1283 FILLER_113_385
*1284 FILLER_113_39
*1285 FILLER_113_391
*1286 FILLER_113_393
*1287 FILLER_113_405
*1288 FILLER_113_417
*1289 FILLER_113_429
*1290 FILLER_113_441
*1291 FILLER_113_447
*1292 FILLER_113_449
*1293 FILLER_113_461
*1294 FILLER_113_473
*1295 FILLER_113_485
*1296 FILLER_113_497
*1297 FILLER_113_503
*1298 FILLER_113_505
*1299 FILLER_113_51
*1300 FILLER_113_517
*1301 FILLER_113_529
*1302 FILLER_113_541
*1303 FILLER_113_55
*1304 FILLER_113_553
*1305 FILLER_113_559
*1306 FILLER_113_561
*1307 FILLER_113_57
*1308 FILLER_113_573
*1309 FILLER_113_585
*1310 FILLER_113_597
*1311 FILLER_113_609
*1312 FILLER_113_615
*1313 FILLER_113_617
*1314 FILLER_113_629
*1315 FILLER_113_641
*1316 FILLER_113_653
*1317 FILLER_113_665
*1318 FILLER_113_671
*1319 FILLER_113_673
*1320 FILLER_113_685
*1321 FILLER_113_69
*1322 FILLER_113_697
*1323 FILLER_113_709
*1324 FILLER_113_721
*1325 FILLER_113_727
*1326 FILLER_113_729
*1327 FILLER_113_81
*1328 FILLER_113_93
*1329 FILLER_114_109
*1330 FILLER_114_121
*1331 FILLER_114_133
*1332 FILLER_114_139
*1333 FILLER_114_141
*1334 FILLER_114_15
*1335 FILLER_114_153
*1336 FILLER_114_165
*1337 FILLER_114_177
*1338 FILLER_114_189
*1339 FILLER_114_195
*1340 FILLER_114_197
*1341 FILLER_114_209
*1342 FILLER_114_221
*1343 FILLER_114_233
*1344 FILLER_114_245
*1345 FILLER_114_251
*1346 FILLER_114_253
*1347 FILLER_114_265
*1348 FILLER_114_27
*1349 FILLER_114_277
*1350 FILLER_114_289
*1351 FILLER_114_29
*1352 FILLER_114_3
*1353 FILLER_114_301
*1354 FILLER_114_307
*1355 FILLER_114_309
*1356 FILLER_114_321
*1357 FILLER_114_333
*1358 FILLER_114_345
*1359 FILLER_114_357
*1360 FILLER_114_363
*1361 FILLER_114_365
*1362 FILLER_114_377
*1363 FILLER_114_389
*1364 FILLER_114_401
*1365 FILLER_114_41
*1366 FILLER_114_413
*1367 FILLER_114_419
*1368 FILLER_114_421
*1369 FILLER_114_433
*1370 FILLER_114_445
*1371 FILLER_114_457
*1372 FILLER_114_469
*1373 FILLER_114_475
*1374 FILLER_114_477
*1375 FILLER_114_489
*1376 FILLER_114_501
*1377 FILLER_114_513
*1378 FILLER_114_525
*1379 FILLER_114_53
*1380 FILLER_114_531
*1381 FILLER_114_533
*1382 FILLER_114_545
*1383 FILLER_114_557
*1384 FILLER_114_569
*1385 FILLER_114_581
*1386 FILLER_114_587
*1387 FILLER_114_589
*1388 FILLER_114_601
*1389 FILLER_114_613
*1390 FILLER_114_625
*1391 FILLER_114_637
*1392 FILLER_114_643
*1393 FILLER_114_645
*1394 FILLER_114_65
*1395 FILLER_114_657
*1396 FILLER_114_669
*1397 FILLER_114_681
*1398 FILLER_114_693
*1399 FILLER_114_699
*1400 FILLER_114_701
*1401 FILLER_114_713
*1402 FILLER_114_725
*1403 FILLER_114_77
*1404 FILLER_114_83
*1405 FILLER_114_85
*1406 FILLER_114_97
*1407 FILLER_115_105
*1408 FILLER_115_111
*1409 FILLER_115_113
*1410 FILLER_115_125
*1411 FILLER_115_137
*1412 FILLER_115_149
*1413 FILLER_115_15
*1414 FILLER_115_161
*1415 FILLER_115_167
*1416 FILLER_115_169
*1417 FILLER_115_181
*1418 FILLER_115_193
*1419 FILLER_115_205
*1420 FILLER_115_217
*1421 FILLER_115_223
*1422 FILLER_115_225
*1423 FILLER_115_237
*1424 FILLER_115_249
*1425 FILLER_115_261
*1426 FILLER_115_27
*1427 FILLER_115_273
*1428 FILLER_115_279
*1429 FILLER_115_281
*1430 FILLER_115_293
*1431 FILLER_115_3
*1432 FILLER_115_305
*1433 FILLER_115_317
*1434 FILLER_115_329
*1435 FILLER_115_335
*1436 FILLER_115_337
*1437 FILLER_115_349
*1438 FILLER_115_361
*1439 FILLER_115_373
*1440 FILLER_115_385
*1441 FILLER_115_39
*1442 FILLER_115_391
*1443 FILLER_115_393
*1444 FILLER_115_405
*1445 FILLER_115_417
*1446 FILLER_115_429
*1447 FILLER_115_441
*1448 FILLER_115_447
*1449 FILLER_115_449
*1450 FILLER_115_461
*1451 FILLER_115_473
*1452 FILLER_115_485
*1453 FILLER_115_497
*1454 FILLER_115_503
*1455 FILLER_115_505
*1456 FILLER_115_51
*1457 FILLER_115_517
*1458 FILLER_115_529
*1459 FILLER_115_541
*1460 FILLER_115_55
*1461 FILLER_115_553
*1462 FILLER_115_559
*1463 FILLER_115_561
*1464 FILLER_115_57
*1465 FILLER_115_573
*1466 FILLER_115_585
*1467 FILLER_115_597
*1468 FILLER_115_609
*1469 FILLER_115_615
*1470 FILLER_115_617
*1471 FILLER_115_629