*SPEF "ieee 1481-1999"
*DESIGN "Video"
*DATE "11:11:11 Fri 11 11, 1111"
*VENDOR "OpenRCX"
*PROGRAM "Parallel Extraction"
*VERSION "1.0"
*DESIGN_FLOW "NAME_SCOPE LOCAL" "PIN_CAP NONE"
*DIVIDER /
*DELIMITER :
*BUS_DELIMITER []
*T_UNIT 1 NS
*C_UNIT 1 PF
*R_UNIT 1 OHM
*L_UNIT 1 HENRY

*NAME_MAP
*1 sram0_csb0
*2 sram0_csb1
*3 sram0_dout0[0]
*4 sram0_dout0[10]
*5 sram0_dout0[11]
*6 sram0_dout0[12]
*7 sram0_dout0[13]
*8 sram0_dout0[14]
*9 sram0_dout0[15]
*10 sram0_dout0[16]
*11 sram0_dout0[17]
*12 sram0_dout0[18]
*13 sram0_dout0[19]
*14 sram0_dout0[1]
*15 sram0_dout0[20]
*16 sram0_dout0[21]
*17 sram0_dout0[22]
*18 sram0_dout0[23]
*19 sram0_dout0[24]
*20 sram0_dout0[25]
*21 sram0_dout0[26]
*22 sram0_dout0[27]
*23 sram0_dout0[28]
*24 sram0_dout0[29]
*25 sram0_dout0[2]
*26 sram0_dout0[30]
*27 sram0_dout0[31]
*28 sram0_dout0[3]
*29 sram0_dout0[4]
*30 sram0_dout0[5]
*31 sram0_dout0[6]
*32 sram0_dout0[7]
*33 sram0_dout0[8]
*34 sram0_dout0[9]
*35 sram0_dout1[0]
*36 sram0_dout1[10]
*37 sram0_dout1[11]
*38 sram0_dout1[12]
*39 sram0_dout1[13]
*40 sram0_dout1[14]
*41 sram0_dout1[15]
*42 sram0_dout1[16]
*43 sram0_dout1[17]
*44 sram0_dout1[18]
*45 sram0_dout1[19]
*46 sram0_dout1[1]
*47 sram0_dout1[20]
*48 sram0_dout1[21]
*49 sram0_dout1[22]
*50 sram0_dout1[23]
*51 sram0_dout1[24]
*52 sram0_dout1[25]
*53 sram0_dout1[26]
*54 sram0_dout1[27]
*55 sram0_dout1[28]
*56 sram0_dout1[29]
*57 sram0_dout1[2]
*58 sram0_dout1[30]
*59 sram0_dout1[31]
*60 sram0_dout1[3]
*61 sram0_dout1[4]
*62 sram0_dout1[5]
*63 sram0_dout1[6]
*64 sram0_dout1[7]
*65 sram0_dout1[8]
*66 sram0_dout1[9]
*67 sram1_csb0
*68 sram1_csb1
*69 sram1_dout0[0]
*70 sram1_dout0[10]
*71 sram1_dout0[11]
*72 sram1_dout0[12]
*73 sram1_dout0[13]
*74 sram1_dout0[14]
*75 sram1_dout0[15]
*76 sram1_dout0[16]
*77 sram1_dout0[17]
*78 sram1_dout0[18]
*79 sram1_dout0[19]
*80 sram1_dout0[1]
*81 sram1_dout0[20]
*82 sram1_dout0[21]
*83 sram1_dout0[22]
*84 sram1_dout0[23]
*85 sram1_dout0[24]
*86 sram1_dout0[25]
*87 sram1_dout0[26]
*88 sram1_dout0[27]
*89 sram1_dout0[28]
*90 sram1_dout0[29]
*91 sram1_dout0[2]
*92 sram1_dout0[30]
*93 sram1_dout0[31]
*94 sram1_dout0[3]
*95 sram1_dout0[4]
*96 sram1_dout0[5]
*97 sram1_dout0[6]
*98 sram1_dout0[7]
*99 sram1_dout0[8]
*100 sram1_dout0[9]
*101 sram1_dout1[0]
*102 sram1_dout1[10]
*103 sram1_dout1[11]
*104 sram1_dout1[12]
*105 sram1_dout1[13]
*106 sram1_dout1[14]
*107 sram1_dout1[15]
*108 sram1_dout1[16]
*109 sram1_dout1[17]
*110 sram1_dout1[18]
*111 sram1_dout1[19]
*112 sram1_dout1[1]
*113 sram1_dout1[20]
*114 sram1_dout1[21]
*115 sram1_dout1[22]
*116 sram1_dout1[23]
*117 sram1_dout1[24]
*118 sram1_dout1[25]
*119 sram1_dout1[26]
*120 sram1_dout1[27]
*121 sram1_dout1[28]
*122 sram1_dout1[29]
*123 sram1_dout1[2]
*124 sram1_dout1[30]
*125 sram1_dout1[31]
*126 sram1_dout1[3]
*127 sram1_dout1[4]
*128 sram1_dout1[5]
*129 sram1_dout1[6]
*130 sram1_dout1[7]
*131 sram1_dout1[8]
*132 sram1_dout1[9]
*133 sram_addr0[0]
*134 sram_addr0[1]
*135 sram_addr0[2]
*136 sram_addr0[3]
*137 sram_addr0[4]
*138 sram_addr0[5]
*139 sram_addr0[6]
*140 sram_addr0[7]
*141 sram_addr0[8]
*142 sram_addr1[0]
*143 sram_addr1[1]
*144 sram_addr1[2]
*145 sram_addr1[3]
*146 sram_addr1[4]
*147 sram_addr1[5]
*148 sram_addr1[6]
*149 sram_addr1[7]
*150 sram_addr1[8]
*151 sram_clk0
*152 sram_clk1
*153 sram_din0[0]
*154 sram_din0[10]
*155 sram_din0[11]
*156 sram_din0[12]
*157 sram_din0[13]
*158 sram_din0[14]
*159 sram_din0[15]
*160 sram_din0[16]
*161 sram_din0[17]
*162 sram_din0[18]
*163 sram_din0[19]
*164 sram_din0[1]
*165 sram_din0[20]
*166 sram_din0[21]
*167 sram_din0[22]
*168 sram_din0[23]
*169 sram_din0[24]
*170 sram_din0[25]
*171 sram_din0[26]
*172 sram_din0[27]
*173 sram_din0[28]
*174 sram_din0[29]
*175 sram_din0[2]
*176 sram_din0[30]
*177 sram_din0[31]
*178 sram_din0[3]
*179 sram_din0[4]
*180 sram_din0[5]
*181 sram_din0[6]
*182 sram_din0[7]
*183 sram_din0[8]
*184 sram_din0[9]
*185 sram_web0
*186 sram_wmask0[0]
*187 sram_wmask0[1]
*188 sram_wmask0[2]
*189 sram_wmask0[3]
*191 vga_b[0]
*192 vga_b[1]
*193 vga_g[0]
*194 vga_g[1]
*195 vga_hsync
*196 vga_r[0]
*197 vga_r[1]
*198 vga_vsync
*200 wb_ack_o
*201 wb_adr_i[0]
*202 wb_adr_i[10]
*203 wb_adr_i[11]
*204 wb_adr_i[12]
*205 wb_adr_i[13]
*206 wb_adr_i[14]
*207 wb_adr_i[15]
*208 wb_adr_i[16]
*209 wb_adr_i[17]
*210 wb_adr_i[18]
*211 wb_adr_i[19]
*212 wb_adr_i[1]
*213 wb_adr_i[20]
*214 wb_adr_i[21]
*215 wb_adr_i[22]
*216 wb_adr_i[23]
*217 wb_adr_i[2]
*218 wb_adr_i[3]
*219 wb_adr_i[4]
*220 wb_adr_i[5]
*221 wb_adr_i[6]
*222 wb_adr_i[7]
*223 wb_adr_i[8]
*224 wb_adr_i[9]
*225 wb_clk_i
*226 wb_cyc_i
*227 wb_data_i[0]
*228 wb_data_i[10]
*229 wb_data_i[11]
*230 wb_data_i[12]
*231 wb_data_i[13]
*232 wb_data_i[14]
*233 wb_data_i[15]
*234 wb_data_i[16]
*235 wb_data_i[17]
*236 wb_data_i[18]
*237 wb_data_i[19]
*238 wb_data_i[1]
*239 wb_data_i[20]
*240 wb_data_i[21]
*241 wb_data_i[22]
*242 wb_data_i[23]
*243 wb_data_i[24]
*244 wb_data_i[25]
*245 wb_data_i[26]
*246 wb_data_i[27]
*247 wb_data_i[28]
*248 wb_data_i[29]
*249 wb_data_i[2]
*250 wb_data_i[30]
*251 wb_data_i[31]
*252 wb_data_i[3]
*253 wb_data_i[4]
*254 wb_data_i[5]
*255 wb_data_i[6]
*256 wb_data_i[7]
*257 wb_data_i[8]
*258 wb_data_i[9]
*259 wb_data_o[0]
*260 wb_data_o[10]
*261 wb_data_o[11]
*262 wb_data_o[12]
*263 wb_data_o[13]
*264 wb_data_o[14]
*265 wb_data_o[15]
*266 wb_data_o[16]
*267 wb_data_o[17]
*268 wb_data_o[18]
*269 wb_data_o[19]
*270 wb_data_o[1]
*271 wb_data_o[20]
*272 wb_data_o[21]
*273 wb_data_o[22]
*274 wb_data_o[23]
*275 wb_data_o[24]
*276 wb_data_o[25]
*277 wb_data_o[26]
*278 wb_data_o[27]
*279 wb_data_o[28]
*280 wb_data_o[29]
*281 wb_data_o[2]
*282 wb_data_o[30]
*283 wb_data_o[31]
*284 wb_data_o[3]
*285 wb_data_o[4]
*286 wb_data_o[5]
*287 wb_data_o[6]
*288 wb_data_o[7]
*289 wb_data_o[8]
*290 wb_data_o[9]
*291 net290
*292 wb_rst_i
*293 wb_sel_i[0]
*294 wb_sel_i[1]
*295 wb_sel_i[2]
*296 wb_sel_i[3]
*297 wb_stall_o
*298 wb_stb_i
*299 wb_we_i
*300 _0000_
*301 _0001_
*302 _0002_
*303 _0003_
*304 _0004_
*305 _0005_
*306 _0006_
*307 _0007_
*308 _0008_
*309 _0009_
*310 _0010_
*311 _0011_
*312 _0012_
*313 _0013_
*314 _0014_
*315 _0015_
*316 _0016_
*317 _0017_
*318 _0018_
*319 _0019_
*320 _0020_
*321 _0021_
*322 _0022_
*323 _0023_
*324 _0024_
*325 _0025_
*326 _0026_
*327 _0027_
*328 _0028_
*329 _0029_
*330 _0030_
*331 _0031_
*332 _0032_
*333 _0033_
*334 _0034_
*335 _0035_
*336 _0036_
*337 _0037_
*338 _0038_
*339 _0039_
*340 _0040_
*341 _0041_
*342 _0042_
*343 _0043_
*344 _0044_
*345 _0045_
*346 _0046_
*347 _0047_
*348 _0048_
*349 _0049_
*350 _0050_
*351 _0051_
*352 _0052_
*353 _0053_
*354 _0054_
*355 _0055_
*356 _0056_
*357 _0057_
*358 _0058_
*359 _0059_
*360 _0060_
*361 _0061_
*362 _0062_
*363 _0063_
*364 _0064_
*365 _0065_
*366 _0066_
*367 _0067_
*368 _0068_
*369 _0069_
*370 _0070_
*371 _0071_
*372 _0072_
*373 _0073_
*374 _0074_
*375 _0075_
*376 _0076_
*377 _0077_
*378 _0078_
*379 _0079_
*380 _0080_
*381 _0081_
*382 _0082_
*383 _0083_
*384 _0084_
*385 _0085_
*386 _0086_
*387 _0087_
*388 _0088_
*389 _0089_
*390 _0090_
*391 _0091_
*392 _0092_
*393 _0093_
*394 _0094_
*395 _0095_
*396 _0096_
*397 _0097_
*398 _0098_
*399 _0099_
*400 _0100_
*401 _0101_
*402 _0102_
*403 _0103_
*404 _0104_
*405 _0105_
*406 _0106_
*407 _0107_
*408 _0108_
*409 _0109_
*410 _0110_
*411 _0111_
*412 _0112_
*413 _0113_
*414 _0114_
*415 _0115_
*416 _0116_
*417 _0117_
*418 _0118_
*419 _0119_
*420 _0120_
*421 _0121_
*422 _0122_
*423 _0123_
*424 _0124_
*425 _0125_
*426 _0126_
*427 _0127_
*428 _0128_
*429 _0129_
*430 _0130_
*431 _0131_
*432 _0132_
*433 _0133_
*434 _0134_
*435 _0135_
*436 _0136_
*437 _0137_
*438 _0138_
*439 _0139_
*440 _0140_
*441 _0141_
*442 _0142_
*443 _0143_
*444 _0144_
*445 _0145_
*446 _0146_
*447 _0147_
*448 _0148_
*449 _0149_
*450 _0150_
*451 _0151_
*452 _0152_
*453 _0153_
*454 _0154_
*455 _0155_
*456 _0156_
*457 _0157_
*458 _0158_
*459 _0159_
*460 _0160_
*461 _0161_
*462 _0162_
*463 _0163_
*464 _0164_
*465 _0165_
*466 _0166_
*467 _0167_
*468 _0168_
*469 _0169_
*470 _0170_
*471 _0171_
*472 _0172_
*473 _0173_
*474 _0174_
*475 _0175_
*476 _0176_
*477 _0177_
*478 _0178_
*479 _0179_
*480 _0180_
*481 _0181_
*482 _0182_
*483 _0183_
*484 _0184_
*485 _0185_
*486 _0186_
*487 _0187_
*488 _0188_
*489 _0189_
*490 _0190_
*491 _0191_
*492 _0192_
*493 _0193_
*494 _0194_
*495 _0195_
*496 _0196_
*497 _0197_
*498 _0198_
*499 _0199_
*500 _0200_
*501 _0201_
*502 _0202_
*503 _0203_
*504 _0204_
*505 _0205_
*506 _0206_
*507 _0207_
*508 _0208_
*509 _0209_
*510 _0210_
*511 _0211_
*512 _0212_
*513 _0213_
*514 _0214_
*515 _0215_
*516 _0216_
*517 _0217_
*518 _0218_
*519 _0219_
*520 _0220_
*521 _0221_
*522 _0222_
*523 _0223_
*524 _0224_
*525 _0225_
*526 _0226_
*527 _0227_
*528 _0228_
*529 _0229_
*530 _0230_
*531 _0231_
*532 _0232_
*533 _0233_
*534 _0234_
*535 _0235_
*536 _0236_
*537 _0237_
*538 _0238_
*539 _0239_
*540 _0240_
*541 _0241_
*542 _0242_
*543 _0243_
*544 _0244_
*545 _0245_
*546 _0246_
*547 _0247_
*548 _0248_
*549 _0249_
*550 _0250_
*551 _0251_
*552 _0252_
*553 _0253_
*554 _0254_
*555 _0255_
*556 _0256_
*557 _0257_
*558 _0258_
*559 _0259_
*560 _0260_
*561 _0261_
*562 _0262_
*563 _0263_
*564 _0264_
*565 _0265_
*566 _0266_
*567 _0267_
*568 _0268_
*569 _0269_
*570 _0270_
*571 _0271_
*572 _0272_
*573 _0273_
*574 _0274_
*575 _0275_
*576 _0276_
*577 _0277_
*578 _0278_
*579 _0279_
*580 _0280_
*581 _0281_
*582 _0282_
*583 _0283_
*584 _0284_
*585 _0285_
*586 _0286_
*587 _0287_
*588 _0288_
*589 _0289_
*590 _0290_
*591 _0291_
*592 _0292_
*593 _0293_
*594 _0294_
*595 _0295_
*596 _0296_
*597 _0297_
*598 _0298_
*599 _0299_
*600 _0300_
*601 _0301_
*602 _0302_
*603 _0303_
*604 _0304_
*605 _0305_
*606 _0306_
*607 _0307_
*608 _0308_
*609 _0309_
*610 _0310_
*611 _0311_
*612 _0312_
*613 _0313_
*614 _0314_
*615 _0315_
*616 _0316_
*617 _0317_
*618 _0318_
*619 _0319_
*620 _0320_
*621 _0321_
*622 _0322_
*623 _0323_
*624 _0324_
*625 _0325_
*626 _0326_
*627 _0327_
*628 _0328_
*629 _0329_
*630 _0330_
*631 _0331_
*632 _0332_
*633 _0333_
*634 _0334_
*635 _0335_
*636 _0336_
*637 _0337_
*638 _0338_
*639 _0339_
*640 _0340_
*641 _0341_
*642 _0342_
*643 _0343_
*644 _0344_
*645 _0345_
*646 _0346_
*647 _0347_
*648 _0348_
*649 _0349_
*650 _0350_
*651 _0351_
*652 _0352_
*653 _0353_
*654 _0354_
*655 _0355_
*656 _0356_
*657 _0357_
*658 _0358_
*659 _0359_
*660 _0360_
*661 _0361_
*662 _0362_
*663 _0363_
*664 _0364_
*665 _0365_
*666 _0366_
*667 _0367_
*668 _0368_
*669 _0369_
*670 _0370_
*671 _0371_
*672 _0372_
*673 _0373_
*674 _0374_
*675 _0375_
*676 _0376_
*677 _0377_
*678 _0378_
*679 _0379_
*680 _0380_
*681 _0381_
*682 _0382_
*683 _0383_
*684 _0384_
*685 _0385_
*686 _0386_
*687 _0387_
*688 _0388_
*689 _0389_
*690 _0390_
*691 _0391_
*692 _0392_
*693 _0393_
*694 _0394_
*695 _0395_
*696 _0396_
*697 _0397_
*698 _0398_
*699 _0399_
*700 _0400_
*701 _0401_
*702 _0402_
*703 _0403_
*704 _0404_
*705 _0405_
*706 _0406_
*707 _0407_
*708 _0408_
*709 _0409_
*710 _0410_
*711 _0411_
*712 _0412_
*713 _0413_
*714 _0414_
*715 _0415_
*716 _0416_
*717 _0417_
*718 _0418_
*719 _0419_
*720 _0420_
*721 _0421_
*722 _0422_
*723 _0423_
*724 _0424_
*725 _0425_
*726 _0426_
*727 _0427_
*728 _0428_
*729 _0429_
*730 _0430_
*731 _0431_
*732 _0432_
*733 _0433_
*734 _0434_
*735 _0435_
*736 _0436_
*737 _0437_
*738 _0438_
*739 _0439_
*740 _0440_
*741 _0441_
*742 _0442_
*743 _0443_
*744 _0444_
*745 _0445_
*746 _0446_
*747 _0447_
*748 _0448_
*749 _0449_
*750 _0450_
*751 _0451_
*752 _0452_
*753 _0453_
*754 _0454_
*755 _0455_
*756 _0456_
*757 _0457_
*758 _0458_
*759 _0459_
*760 _0460_
*761 _0461_
*762 _0462_
*763 _0463_
*764 _0464_
*765 _0465_
*766 _0466_
*767 _0467_
*768 _0468_
*769 _0469_
*770 _0470_
*771 _0471_
*772 _0472_
*773 _0473_
*774 _0474_
*775 _0475_
*776 _0476_
*777 _0477_
*778 _0478_
*779 _0479_
*780 _0480_
*781 _0481_
*782 _0482_
*783 _0483_
*784 _0484_
*785 _0485_
*786 _0486_
*787 _0487_
*788 _0488_
*789 _0489_
*790 _0490_
*791 _0491_
*792 _0492_
*793 _0493_
*794 _0494_
*795 _0495_
*796 _0496_
*797 _0497_
*798 _0498_
*799 _0499_
*800 _0500_
*801 _0501_
*802 _0502_
*803 _0503_
*804 _0504_
*805 _0505_
*806 _0506_
*807 _0507_
*808 _0508_
*809 _0509_
*810 _0510_
*811 _0511_
*812 _0512_
*813 _0513_
*814 _0514_
*815 _0515_
*816 _0516_
*817 _0517_
*818 _0518_
*819 _0519_
*820 _0520_
*821 _0521_
*822 _0522_
*823 _0523_
*824 _0524_
*825 _0525_
*826 _0526_
*827 _0527_
*828 _0528_
*829 _0529_
*830 _0530_
*831 _0531_
*832 _0532_
*833 _0533_
*834 _0534_
*835 _0535_
*836 _0536_
*837 _0537_
*838 _0538_
*839 _0539_
*840 _0540_
*841 _0541_
*842 _0542_
*843 _0543_
*844 _0544_
*845 _0545_
*846 _0546_
*847 _0547_
*848 _0548_
*849 _0549_
*850 _0550_
*851 _0551_
*852 _0552_
*853 _0553_
*854 _0554_
*855 _0555_
*856 _0556_
*857 _0557_
*858 _0558_
*859 _0559_
*860 _0560_
*861 _0561_
*862 _0562_
*863 _0563_
*864 _0564_
*865 _0565_
*866 _0566_
*867 _0567_
*868 _0568_
*869 _0569_
*870 _0570_
*871 _0571_
*872 _0572_
*873 _0573_
*874 _0574_
*875 _0575_
*876 _0576_
*877 _0577_
*878 _0578_
*879 _0579_
*880 _0580_
*881 _0581_
*882 _0582_
*883 _0583_
*884 _0584_
*885 _0585_
*886 _0586_
*887 _0587_
*888 _0588_
*889 _0589_
*890 _0590_
*891 _0591_
*892 _0592_
*893 _0593_
*894 _0594_
*895 _0595_
*896 _0596_
*897 _0597_
*898 _0598_
*899 _0599_
*900 _0600_
*901 _0601_
*902 _0602_
*903 _0603_
*904 _0604_
*905 _0605_
*906 _0606_
*907 _0607_
*908 _0608_
*909 _0609_
*910 _0610_
*911 _0611_
*912 _0612_
*913 _0613_
*914 _0614_
*915 _0615_
*916 _0616_
*917 _0617_
*918 _0618_
*919 _0619_
*920 _0620_
*921 _0621_
*922 _0622_
*923 _0623_
*924 _0624_
*925 _0625_
*926 _0626_
*927 _0627_
*928 _0628_
*929 _0629_
*930 _0630_
*931 _0631_
*932 _0632_
*933 _0633_
*934 _0634_
*935 _0635_
*936 _0636_
*937 _0637_
*938 _0638_
*939 _0639_
*940 _0640_
*941 _0641_
*942 _0642_
*943 _0643_
*944 _0644_
*945 _0645_
*946 _0646_
*947 _0647_
*948 _0648_
*949 _0649_
*950 _0650_
*951 _0651_
*952 _0652_
*953 _0653_
*954 _0654_
*955 _0655_
*956 _0656_
*957 _0657_
*958 _0658_
*959 _0659_
*960 _0660_
*961 _0661_
*962 _0662_
*963 _0663_
*964 _0664_
*965 _0665_
*966 _0666_
*967 _0667_
*968 _0668_
*969 _0669_
*970 _0670_
*971 _0671_
*972 _0672_
*973 _0673_
*974 _0674_
*975 _0675_
*976 _0676_
*977 _0677_
*978 _0678_
*979 _0679_
*980 _0680_
*981 _0681_
*982 _0682_
*983 _0683_
*984 _0684_
*985 _0685_
*986 _0686_
*987 _0687_
*988 _0688_
*989 _0689_
*990 _0690_
*991 _0691_
*992 _0692_
*993 _0693_
*994 _0694_
*995 _0695_
*996 _0696_
*997 _0697_
*998 _0698_
*999 _0699_
*1000 _0700_
*1001 _0701_
*1002 _0702_
*1003 _0703_
*1004 _0704_
*1005 _0705_
*1006 _0706_
*1007 _0707_
*1008 _0708_
*1009 _0709_
*1010 _0710_
*1011 _0711_
*1012 _0712_
*1013 _0713_
*1014 _0714_
*1015 _0715_
*1016 _0716_
*1017 _0717_
*1018 _0718_
*1019 _0719_
*1020 _0720_
*1021 _0721_
*1022 _0722_
*1023 _0723_
*1024 _0724_
*1025 _0725_
*1026 _0726_
*1027 _0727_
*1028 _0728_
*1029 _0729_
*1030 _0730_
*1031 _0731_
*1032 _0732_
*1033 _0733_
*1034 _0734_
*1035 _0735_
*1036 _0736_
*1037 _0737_
*1038 _0738_
*1039 _0739_
*1040 _0740_
*1041 _0741_
*1042 _0742_
*1043 _0743_
*1044 _0744_
*1045 _0745_
*1046 _0746_
*1047 _0747_
*1048 _0748_
*1049 _0749_
*1050 _0750_
*1051 _0751_
*1052 _0752_
*1053 _0753_
*1054 _0754_
*1055 _0755_
*1056 _0756_
*1057 _0757_
*1058 _0758_
*1059 _0759_
*1060 _0760_
*1061 _0761_
*1062 _0762_
*1063 _0763_
*1064 _0764_
*1065 _0765_
*1066 _0766_
*1067 _0767_
*1068 _0768_
*1069 _0769_
*1070 _0770_
*1071 _0771_
*1072 _0772_
*1073 _0773_
*1074 _0774_
*1075 _0775_
*1076 _0776_
*1077 _0777_
*1078 _0778_
*1079 _0779_
*1080 _0780_
*1081 _0781_
*1082 _0782_
*1083 _0783_
*1084 _0784_
*1085 _0785_
*1086 _0786_
*1087 _0787_
*1088 _0788_
*1089 _0789_
*1090 _0790_
*1091 _0791_
*1092 _0792_
*1093 _0793_
*1094 _0794_
*1095 _0795_
*1096 _0796_
*1097 _0797_
*1098 _0798_
*1099 _0799_
*1100 _0800_
*1101 _0801_
*1102 _0802_
*1103 _0803_
*1104 _0804_
*1105 _0805_
*1106 _0806_
*1107 _0807_
*1108 _0808_
*1109 _0809_
*1110 _0810_
*1111 _0811_
*1112 _0812_
*1113 _0813_
*1114 _0814_
*1115 _0815_
*1116 _0816_
*1117 _0817_
*1118 _0818_
*1119 _0819_
*1120 _0820_
*1121 _0821_
*1122 _0822_
*1123 _0823_
*1124 _0824_
*1125 _0825_
*1126 _0826_
*1127 _0827_
*1128 _0828_
*1129 _0829_
*1130 _0830_
*1131 _0831_
*1132 _0832_
*1133 _0833_
*1134 _0834_
*1135 _0835_
*1136 _0836_
*1137 _0837_
*1138 _0838_
*1139 _0839_
*1140 _0840_
*1141 _0841_
*1142 _0842_
*1143 _0843_
*1144 _0844_
*1145 _0845_
*1146 _0846_
*1147 _0847_
*1148 _0848_
*1149 _0849_
*1150 _0850_
*1151 _0851_
*1152 _0852_
*1153 _0853_
*1154 _0854_
*1155 _0855_
*1156 _0856_
*1157 _0857_
*1158 _0858_
*1159 _0859_
*1160 _0860_
*1161 _0861_
*1162 _0862_
*1163 _0863_
*1164 _0864_
*1165 _0865_
*1166 _0866_
*1167 _0867_
*1168 _0868_
*1169 _0869_
*1170 _0870_
*1171 _0871_
*1172 _0872_
*1173 _0873_
*1174 _0874_
*1175 _0875_
*1176 _0876_
*1177 _0877_
*1178 _0878_
*1179 _0879_
*1180 _0880_
*1181 _0881_
*1182 _0882_
*1183 _0883_
*1184 _0884_
*1185 _0885_
*1186 _0886_
*1187 _0887_
*1188 _0888_
*1189 _0889_
*1190 _0890_
*1191 _0891_
*1192 _0892_
*1193 _0893_
*1194 _0894_
*1195 _0895_
*1196 _0896_
*1197 _0897_
*1198 _0898_
*1199 _0899_
*1200 _0900_
*1201 _0901_
*1202 _0902_
*1203 _0903_
*1204 _0904_
*1205 _0905_
*1206 _0906_
*1207 _0907_
*1208 _0908_
*1209 _0909_
*1210 _0910_
*1211 _0911_
*1212 _0912_
*1213 _0913_
*1214 _0914_
*1215 _0915_
*1216 _0916_
*1217 _0917_
*1218 _0918_
*1219 _0919_
*1220 _0920_
*1221 _0921_
*1222 _0922_
*1223 _0923_
*1224 _0924_
*1225 _0925_
*1226 _0926_
*1227 _0927_
*1228 _0928_
*1229 _0929_
*1230 _0930_
*1231 _0931_
*1232 _0932_
*1233 _0933_
*1234 _0934_
*1235 _0935_
*1236 _0936_
*1237 _0937_
*1238 _0938_
*1239 _0939_
*1240 _0940_
*1241 _0941_
*1242 _0942_
*1243 _0943_
*1244 _0944_
*1245 _0945_
*1246 _0946_
*1247 _0947_
*1248 _0948_
*1249 _0949_
*1250 _0950_
*1251 _0951_
*1252 _0952_
*1253 _0953_
*1254 _0954_
*1255 _0955_
*1256 _0956_
*1257 _0957_
*1258 _0958_
*1259 _0959_
*1260 _0960_
*1261 _0961_
*1262 _0962_
*1263 _0963_
*1264 _0964_
*1265 _0965_
*1266 _0966_
*1267 _0967_
*1268 _0968_
*1269 _0969_
*1270 _0970_
*1271 _0971_
*1272 _0972_
*1273 _0973_
*1274 _0974_
*1275 _0975_
*1276 _0976_
*1277 _0977_
*1278 _0978_
*1279 _0979_
*1280 _0980_
*1281 _0981_
*1282 _0982_
*1283 _0983_
*1284 _0984_
*1285 _0985_
*1286 _0986_
*1287 _0987_
*1288 _0988_
*1289 _0989_
*1290 _0990_
*1291 _0991_
*1292 _0992_
*1293 _0993_
*1294 _0994_
*1295 _0995_
*1296 clknet_0_wb_clk_i
*1297 clknet_1_0_0_wb_clk_i
*1298 clknet_1_1_0_wb_clk_i
*1299 clknet_2_0_0_wb_clk_i
*1300 clknet_2_1_0_wb_clk_i
*1301 clknet_2_2_0_wb_clk_i
*1302 clknet_2_3_0_wb_clk_i
*1303 clknet_3_0_0_wb_clk_i
*1304 clknet_3_1_0_wb_clk_i
*1305 clknet_3_2_0_wb_clk_i
*1306 clknet_3_3_0_wb_clk_i
*1307 clknet_3_4_0_wb_clk_i
*1308 clknet_3_5_0_wb_clk_i
*1309 clknet_3_6_0_wb_clk_i
*1310 clknet_3_7_0_wb_clk_i
*1311 clknet_4_0_0_wb_clk_i
*1312 clknet_4_10_0_wb_clk_i
*1313 clknet_4_11_0_wb_clk_i
*1314 clknet_4_12_0_wb_clk_i
*1315 clknet_4_13_0_wb_clk_i
*1316 clknet_4_14_0_wb_clk_i
*1317 clknet_4_15_0_wb_clk_i
*1318 clknet_4_1_0_wb_clk_i
*1319 clknet_4_2_0_wb_clk_i
*1320 clknet_4_3_0_wb_clk_i
*1321 clknet_4_4_0_wb_clk_i
*1322 clknet_4_5_0_wb_clk_i
*1323 clknet_4_6_0_wb_clk_i
*1324 clknet_4_7_0_wb_clk_i
*1325 clknet_4_8_0_wb_clk_i
*1326 clknet_4_9_0_wb_clk_i
*1327 clknet_opt_1_0_wb_clk_i
*1328 clknet_opt_1_1_wb_clk_i
*1329 net1
*1330 net10
*1331 net100
*1332 net101
*1333 net102
*1334 net103
*1335 net104
*1336 net105
*1337 net106
*1338 net107
*1339 net108
*1340 net109
*1341 net11
*1342 net110
*1343 net111
*1344 net112
*1345 net113
*1346 net114
*1347 net115
*1348 net116
*1349 net117
*1350 net118
*1351 net119
*1352 net12
*1353 net120
*1354 net121
*1355 net122
*1356 net123
*1357 net124
*1358 net125
*1359 net126
*1360 net127
*1361 net128
*1362 net129
*1363 net13
*1364 net130
*1365 net131
*1366 net132
*1367 net133
*1368 net134
*1369 net135
*1370 net136
*1371 net137
*1372 net138
*1373 net139
*1374 net14
*1375 net140
*1376 net141
*1377 net142
*1378 net143
*1379 net144
*1380 net145
*1381 net146
*1382 net147
*1383 net148
*1384 net149
*1385 net15
*1386 net150
*1387 net151
*1388 net152
*1389 net153
*1390 net154
*1391 net155
*1392 net156
*1393 net157
*1394 net158
*1395 net159
*1396 net16
*1397 net160
*1398 net161
*1399 net162
*1400 net163
*1401 net164
*1402 net165
*1403 net166
*1404 net167
*1405 net168
*1406 net169
*1407 net17
*1408 net170
*1409 net171
*1410 net172
*1411 net173
*1412 net174
*1413 net175
*1414 net176
*1415 net177
*1416 net178
*1417 net179
*1418 net18
*1419 net180
*1420 net181
*1421 net182
*1422 net183
*1423 net184
*1424 net185
*1425 net186
*1426 net187
*1427 net188
*1428 net189
*1429 net19
*1430 net190
*1431 net191
*1432 net192
*1433 net193
*1434 net194
*1435 net195
*1436 net196
*1437 net197
*1438 net198
*1439 net199
*1440 net2
*1441 net20
*1442 net200
*1443 net201
*1444 net202
*1445 net203
*1446 net204
*1447 net205
*1448 net206
*1449 net207
*1450 net208
*1451 net209
*1452 net21
*1453 net210
*1454 net211
*1455 net212
*1456 net213
*1457 net214
*1458 net215
*1459 net216
*1460 net217
*1461 net218
*1462 net219
*1463 net22
*1464 net220
*1465 net221
*1466 net222
*1467 net223
*1468 net224
*1469 net225
*1470 net226
*1471 net227
*1472 net228
*1473 net229
*1474 net23
*1475 net230
*1476 net231
*1477 net232
*1478 net233
*1479 net234
*1480 net235
*1481 net236
*1482 net237
*1483 net238
*1484 net239
*1485 net24
*1486 net240
*1487 net241
*1488 net242
*1489 net243
*1490 net244
*1491 net245
*1492 net246
*1493 net247
*1494 net248
*1495 net249
*1496 net25
*1497 net250
*1498 net251
*1499 net252
*1500 net253
*1501 net254
*1502 net255
*1503 net256
*1504 net257
*1505 net258
*1506 net259
*1507 net26
*1508 net260
*1509 net261
*1510 net262
*1511 net263
*1512 net264
*1513 net265
*1514 net266
*1515 net267
*1516 net268
*1517 net269
*1518 net27
*1519 net270
*1520 net271
*1521 net272
*1522 net273
*1523 net274
*1524 net275
*1525 net276
*1526 net277
*1527 net278
*1528 net279
*1529 net28
*1530 net280
*1531 net281
*1532 net282
*1533 net283
*1534 net284
*1535 net285
*1536 net286
*1537 net287
*1538 net288
*1539 net289
*1540 net29
*1541 net3
*1542 net30
*1543 net31
*1544 net32
*1545 net33
*1546 net34
*1547 net35
*1548 net36
*1549 net37
*1550 net38
*1551 net39
*1552 net4
*1553 net40
*1554 net41
*1555 net42
*1556 net43
*1557 net44
*1558 net45
*1559 net46
*1560 net47
*1561 net48
*1562 net49
*1563 net5
*1564 net50
*1565 net51
*1566 net52
*1567 net53
*1568 net54
*1569 net55
*1570 net56
*1571 net57
*1572 net58
*1573 net59
*1574 net6
*1575 net60
*1576 net61
*1577 net62
*1578 net63
*1579 net64
*1580 net65
*1581 net66
*1582 net67
*1583 net68
*1584 net69
*1585 net7
*1586 net70
*1587 net71
*1588 net72
*1589 net73
*1590 net74
*1591 net75
*1592 net76
*1593 net77
*1594 net78
*1595 net79
*1596 net8
*1597 net80
*1598 net81
*1599 net82
*1600 net83
*1601 net84
*1602 net85
*1603 net86
*1604 net87
*1605 net88
*1606 net89
*1607 net9
*1608 net90
*1609 net91
*1610 net92
*1611 net93
*1612 net94
*1613 net95
*1614 net96
*1615 net97
*1616 net98
*1617 net99
*1618 vga\.configuration\[0\]
*1619 vga\.configuration\[1\]
*1620 vga\.configuration\[2\]
*1621 vga\.configuration\[3\]
*1622 vga\.configuration\[4\]
*1623 vga\.configuration\[5\]
*1624 vga\.configuration\[6\]
*1625 vga\.configuration\[7\]
*1626 vga\.configuration\[8\]
*1627 vga\.configuration\[9\]
*1628 vga\.horizontalCounter\[0\]
*1629 vga\.horizontalCounter\[10\]
*1630 vga\.horizontalCounter\[1\]
*1631 vga\.horizontalCounter\[2\]
*1632 vga\.horizontalCounter\[3\]
*1633 vga\.horizontalCounter\[4\]
*1634 vga\.horizontalCounter\[5\]
*1635 vga\.horizontalCounter\[6\]
*1636 vga\.horizontalCounter\[7\]
*1637 vga\.horizontalCounter\[8\]
*1638 vga\.horizontalCounter\[9\]
*1639 vga\.horizontalFrontPorchCompare\[0\]
*1640 vga\.horizontalFrontPorchCompare\[10\]
*1641 vga\.horizontalFrontPorchCompare\[1\]
*1642 vga\.horizontalFrontPorchCompare\[2\]
*1643 vga\.horizontalFrontPorchCompare\[3\]
*1644 vga\.horizontalFrontPorchCompare\[4\]
*1645 vga\.horizontalFrontPorchCompare\[5\]
*1646 vga\.horizontalFrontPorchCompare\[6\]
*1647 vga\.horizontalFrontPorchCompare\[7\]
*1648 vga\.horizontalFrontPorchCompare\[8\]
*1649 vga\.horizontalFrontPorchCompare\[9\]
*1650 vga\.horizontalSyncPulseCompare\[0\]
*1651 vga\.horizontalSyncPulseCompare\[10\]
*1652 vga\.horizontalSyncPulseCompare\[1\]
*1653 vga\.horizontalSyncPulseCompare\[2\]
*1654 vga\.horizontalSyncPulseCompare\[3\]
*1655 vga\.horizontalSyncPulseCompare\[4\]
*1656 vga\.horizontalSyncPulseCompare\[5\]
*1657 vga\.horizontalSyncPulseCompare\[6\]
*1658 vga\.horizontalSyncPulseCompare\[7\]
*1659 vga\.horizontalSyncPulseCompare\[8\]
*1660 vga\.horizontalSyncPulseCompare\[9\]
*1661 vga\.horizontalVisibleAreaCompare\[0\]
*1662 vga\.horizontalVisibleAreaCompare\[10\]
*1663 vga\.horizontalVisibleAreaCompare\[1\]
*1664 vga\.horizontalVisibleAreaCompare\[2\]
*1665 vga\.horizontalVisibleAreaCompare\[3\]
*1666 vga\.horizontalVisibleAreaCompare\[4\]
*1667 vga\.horizontalVisibleAreaCompare\[5\]
*1668 vga\.horizontalVisibleAreaCompare\[6\]
*1669 vga\.horizontalVisibleAreaCompare\[7\]
*1670 vga\.horizontalVisibleAreaCompare\[8\]
*1671 vga\.horizontalVisibleAreaCompare\[9\]
*1672 vga\.horizontalWholeLineCompare\[0\]
*1673 vga\.horizontalWholeLineCompare\[10\]
*1674 vga\.horizontalWholeLineCompare\[1\]
*1675 vga\.horizontalWholeLineCompare\[2\]
*1676 vga\.horizontalWholeLineCompare\[3\]
*1677 vga\.horizontalWholeLineCompare\[4\]
*1678 vga\.horizontalWholeLineCompare\[5\]
*1679 vga\.horizontalWholeLineCompare\[6\]
*1680 vga\.horizontalWholeLineCompare\[7\]
*1681 vga\.horizontalWholeLineCompare\[8\]
*1682 vga\.horizontalWholeLineCompare\[9\]
*1683 vga\.inHorizontalVisibleArea
*1684 vga\.inVerticalVisibleArea
*1685 vga\.raw_directPixelCounter\[0\]
*1686 vga\.raw_directPixelCounter\[1\]
*1687 vga\.raw_directPixelCounter\[2\]
*1688 vga\.raw_directPixelCounter\[3\]
*1689 vga\.raw_directPixelCounter\[4\]
*1690 vga\.raw_directPixelCounter\[5\]
*1691 vga\.raw_directPixelCounter\[6\]
*1692 vga\.raw_directPixelCounter\[7\]
*1693 vga\.raw_directPixelCounter\[8\]
*1694 vga\.raw_directPixelCounter\[9\]
*1695 vga\.raw_horizontalPixelCounter\[0\]
*1696 vga\.raw_horizontalPixelCounter\[1\]
*1697 vga\.raw_horizontalPixelCounter\[2\]
*1698 vga\.raw_horizontalPixelCounter\[3\]
*1699 vga\.raw_horizontalPixelStretchCounter\[0\]
*1700 vga\.raw_horizontalPixelStretchCounter\[1\]
*1701 vga\.raw_horizontalPixelStretchCounter\[2\]
*1702 vga\.raw_horizontalPixelStretchCounter\[3\]
*1703 vga\.raw_subPixelCounter\[0\]
*1704 vga\.raw_subPixelCounter\[1\]
*1705 vga\.raw_subPixelCounter\[2\]
*1706 vga\.raw_verticalPixelCounter\[0\]
*1707 vga\.raw_verticalPixelCounter\[1\]
*1708 vga\.raw_verticalPixelCounter\[2\]
*1709 vga\.raw_verticalPixelCounter\[3\]
*1710 vga\.raw_verticalPixelCounter\[4\]
*1711 vga\.raw_verticalPixelCounter\[5\]
*1712 vga\.raw_verticalPixelStretchCounter\[0\]
*1713 vga\.raw_verticalPixelStretchCounter\[1\]
*1714 vga\.raw_verticalPixelStretchCounter\[2\]
*1715 vga\.raw_verticalPixelStretchCounter\[3\]
*1716 vga\.verticalCounter\[0\]
*1717 vga\.verticalCounter\[1\]
*1718 vga\.verticalCounter\[2\]
*1719 vga\.verticalCounter\[3\]
*1720 vga\.verticalCounter\[4\]
*1721 vga\.verticalCounter\[5\]
*1722 vga\.verticalCounter\[6\]
*1723 vga\.verticalCounter\[7\]
*1724 vga\.verticalCounter\[8\]
*1725 vga\.verticalCounter\[9\]
*1726 vga\.verticalFrontPorchCompare\[0\]
*1727 vga\.verticalFrontPorchCompare\[1\]
*1728 vga\.verticalFrontPorchCompare\[2\]
*1729 vga\.verticalFrontPorchCompare\[3\]
*1730 vga\.verticalFrontPorchCompare\[4\]
*1731 vga\.verticalFrontPorchCompare\[5\]
*1732 vga\.verticalFrontPorchCompare\[6\]
*1733 vga\.verticalFrontPorchCompare\[7\]
*1734 vga\.verticalFrontPorchCompare\[8\]
*1735 vga\.verticalFrontPorchCompare\[9\]
*1736 vga\.verticalSyncPulseCompare\[0\]
*1737 vga\.verticalSyncPulseCompare\[1\]
*1738 vga\.verticalSyncPulseCompare\[2\]
*1739 vga\.verticalSyncPulseCompare\[3\]
*1740 vga\.verticalSyncPulseCompare\[4\]
*1741 vga\.verticalSyncPulseCompare\[5\]
*1742 vga\.verticalSyncPulseCompare\[6\]
*1743 vga\.verticalSyncPulseCompare\[7\]
*1744 vga\.verticalSyncPulseCompare\[8\]
*1745 vga\.verticalSyncPulseCompare\[9\]
*1746 vga\.verticalVisibleAreaCompare\[0\]
*1747 vga\.verticalVisibleAreaCompare\[1\]
*1748 vga\.verticalVisibleAreaCompare\[2\]
*1749 vga\.verticalVisibleAreaCompare\[3\]
*1750 vga\.verticalVisibleAreaCompare\[4\]
*1751 vga\.verticalVisibleAreaCompare\[5\]
*1752 vga\.verticalVisibleAreaCompare\[6\]
*1753 vga\.verticalVisibleAreaCompare\[7\]
*1754 vga\.verticalVisibleAreaCompare\[8\]
*1755 vga\.verticalVisibleAreaCompare\[9\]
*1756 vga\.verticalWholeLineCompare\[0\]
*1757 vga\.verticalWholeLineCompare\[1\]
*1758 vga\.verticalWholeLineCompare\[2\]
*1759 vga\.verticalWholeLineCompare\[3\]
*1760 vga\.verticalWholeLineCompare\[4\]
*1761 vga\.verticalWholeLineCompare\[5\]
*1762 vga\.verticalWholeLineCompare\[6\]
*1763 vga\.verticalWholeLineCompare\[7\]
*1764 vga\.verticalWholeLineCompare\[8\]
*1765 vga\.verticalWholeLineCompare\[9\]
*1766 wbPeripheralBusInterface\.currentAddress\[10\]
*1767 wbPeripheralBusInterface\.currentAddress\[11\]
*1768 wbPeripheralBusInterface\.currentAddress\[12\]
*1769 wbPeripheralBusInterface\.currentAddress\[13\]
*1770 wbPeripheralBusInterface\.currentAddress\[14\]
*1771 wbPeripheralBusInterface\.currentAddress\[15\]
*1772 wbPeripheralBusInterface\.currentAddress\[16\]
*1773 wbPeripheralBusInterface\.currentAddress\[17\]
*1774 wbPeripheralBusInterface\.currentAddress\[18\]
*1775 wbPeripheralBusInterface\.currentAddress\[19\]
*1776 wbPeripheralBusInterface\.currentAddress\[20\]
*1777 wbPeripheralBusInterface\.currentAddress\[21\]
*1778 wbPeripheralBusInterface\.currentAddress\[22\]
*1779 wbPeripheralBusInterface\.currentAddress\[23\]
*1780 wbPeripheralBusInterface\.currentAddress\[2\]
*1781 wbPeripheralBusInterface\.currentAddress\[3\]
*1782 wbPeripheralBusInterface\.currentAddress\[4\]
*1783 wbPeripheralBusInterface\.currentAddress\[5\]
*1784 wbPeripheralBusInterface\.currentAddress\[6\]
*1785 wbPeripheralBusInterface\.currentAddress\[7\]
*1786 wbPeripheralBusInterface\.currentAddress\[8\]
*1787 wbPeripheralBusInterface\.currentAddress\[9\]
*1788 wbPeripheralBusInterface\.currentByteSelect\[0\]
*1789 wbPeripheralBusInterface\.currentByteSelect\[1\]
*1790 wbPeripheralBusInterface\.currentByteSelect\[2\]