*SPEF "ieee 1481-1999"
*DESIGN "Video"
*DATE "11:11:11 Fri 11 11, 1111"
*VENDOR "OpenRCX"
*PROGRAM "Parallel Extraction"
*VERSION "1.0"
*DESIGN_FLOW "NAME_SCOPE LOCAL" "PIN_CAP NONE"
*DIVIDER /
*DELIMITER :
*BUS_DELIMITER []
*T_UNIT 1 NS
*C_UNIT 1 PF
*R_UNIT 1 OHM
*L_UNIT 1 HENRY

*NAME_MAP
*1 sram_addr0[0]
*2 sram_addr0[1]
*3 sram_addr0[2]
*4 sram_addr0[3]
*5 sram_addr0[4]
*6 sram_addr0[5]
*7 sram_addr0[6]
*8 sram_addr0[7]
*9 sram_addr0[8]
*10 sram_addr1[0]
*11 sram_addr1[1]
*12 sram_addr1[2]
*13 sram_addr1[3]
*14 sram_addr1[4]
*15 sram_addr1[5]
*16 sram_addr1[6]
*17 sram_addr1[7]
*18 sram_addr1[8]
*19 sram_clk0
*20 sram_clk1
*21 sram_csb0[0]
*22 sram_csb0[1]
*23 sram_csb0[2]
*24 sram_csb0[3]
*25 sram_csb1[0]
*26 sram_csb1[1]
*27 sram_csb1[2]
*28 sram_csb1[3]
*29 sram_din0[0]
*30 sram_din0[10]
*31 sram_din0[11]
*32 sram_din0[12]
*33 sram_din0[13]
*34 sram_din0[14]
*35 sram_din0[15]
*36 sram_din0[16]
*37 sram_din0[17]
*38 sram_din0[18]
*39 sram_din0[19]
*40 sram_din0[1]
*41 sram_din0[20]
*42 sram_din0[21]
*43 sram_din0[22]
*44 sram_din0[23]
*45 sram_din0[24]
*46 sram_din0[25]
*47 sram_din0[26]
*48 sram_din0[27]
*49 sram_din0[28]
*50 sram_din0[29]
*51 sram_din0[2]
*52 sram_din0[30]
*53 sram_din0[31]
*54 sram_din0[3]
*55 sram_din0[4]
*56 sram_din0[5]
*57 sram_din0[6]
*58 sram_din0[7]
*59 sram_din0[8]
*60 sram_din0[9]
*61 sram_dout0[0]
*62 sram_dout0[100]
*63 sram_dout0[101]
*64 sram_dout0[102]
*65 sram_dout0[103]
*66 sram_dout0[104]
*67 sram_dout0[105]
*68 sram_dout0[106]
*69 sram_dout0[107]
*70 sram_dout0[108]
*71 sram_dout0[109]
*72 sram_dout0[10]
*73 sram_dout0[110]
*74 sram_dout0[111]
*75 sram_dout0[112]
*76 sram_dout0[113]
*77 sram_dout0[114]
*78 sram_dout0[115]
*79 sram_dout0[116]
*80 sram_dout0[117]
*81 sram_dout0[118]
*82 sram_dout0[119]
*83 sram_dout0[11]
*84 sram_dout0[120]
*85 sram_dout0[121]
*86 sram_dout0[122]
*87 sram_dout0[123]
*88 sram_dout0[124]
*89 sram_dout0[125]
*90 sram_dout0[126]
*91 sram_dout0[127]
*92 sram_dout0[12]
*93 sram_dout0[13]
*94 sram_dout0[14]
*95 sram_dout0[15]
*96 sram_dout0[16]
*97 sram_dout0[17]
*98 sram_dout0[18]
*99 sram_dout0[19]
*100 sram_dout0[1]
*101 sram_dout0[20]
*102 sram_dout0[21]
*103 sram_dout0[22]
*104 sram_dout0[23]
*105 sram_dout0[24]
*106 sram_dout0[25]
*107 sram_dout0[26]
*108 sram_dout0[27]
*109 sram_dout0[28]
*110 sram_dout0[29]
*111 sram_dout0[2]
*112 sram_dout0[30]
*113 sram_dout0[31]
*114 sram_dout0[32]
*115 sram_dout0[33]
*116 sram_dout0[34]
*117 sram_dout0[35]
*118 sram_dout0[36]
*119 sram_dout0[37]
*120 sram_dout0[38]
*121 sram_dout0[39]
*122 sram_dout0[3]
*123 sram_dout0[40]
*124 sram_dout0[41]
*125 sram_dout0[42]
*126 sram_dout0[43]
*127 sram_dout0[44]
*128 sram_dout0[45]
*129 sram_dout0[46]
*130 sram_dout0[47]
*131 sram_dout0[48]
*132 sram_dout0[49]
*133 sram_dout0[4]
*134 sram_dout0[50]
*135 sram_dout0[51]
*136 sram_dout0[52]
*137 sram_dout0[53]
*138 sram_dout0[54]
*139 sram_dout0[55]
*140 sram_dout0[56]
*141 sram_dout0[57]
*142 sram_dout0[58]
*143 sram_dout0[59]
*144 sram_dout0[5]
*145 sram_dout0[60]
*146 sram_dout0[61]
*147 sram_dout0[62]
*148 sram_dout0[63]
*149 sram_dout0[64]
*150 sram_dout0[65]
*151 sram_dout0[66]
*152 sram_dout0[67]
*153 sram_dout0[68]
*154 sram_dout0[69]
*155 sram_dout0[6]
*156 sram_dout0[70]
*157 sram_dout0[71]
*158 sram_dout0[72]
*159 sram_dout0[73]
*160 sram_dout0[74]
*161 sram_dout0[75]
*162 sram_dout0[76]
*163 sram_dout0[77]
*164 sram_dout0[78]
*165 sram_dout0[79]
*166 sram_dout0[7]
*167 sram_dout0[80]
*168 sram_dout0[81]
*169 sram_dout0[82]
*170 sram_dout0[83]
*171 sram_dout0[84]
*172 sram_dout0[85]
*173 sram_dout0[86]
*174 sram_dout0[87]
*175 sram_dout0[88]
*176 sram_dout0[89]
*177 sram_dout0[8]
*178 sram_dout0[90]
*179 sram_dout0[91]
*180 sram_dout0[92]
*181 sram_dout0[93]
*182 sram_dout0[94]
*183 sram_dout0[95]
*184 sram_dout0[96]
*185 sram_dout0[97]
*186 sram_dout0[98]
*187 sram_dout0[99]
*188 sram_dout0[9]
*189 sram_dout1[0]
*190 sram_dout1[100]
*191 sram_dout1[101]
*192 sram_dout1[102]
*193 sram_dout1[103]
*194 sram_dout1[104]
*195 sram_dout1[105]
*196 sram_dout1[106]
*197 sram_dout1[107]
*198 sram_dout1[108]
*199 sram_dout1[109]
*200 sram_dout1[10]
*201 sram_dout1[110]
*202 sram_dout1[111]
*203 sram_dout1[112]
*204 sram_dout1[113]
*205 sram_dout1[114]
*206 sram_dout1[115]
*207 sram_dout1[116]
*208 sram_dout1[117]
*209 sram_dout1[118]
*210 sram_dout1[119]
*211 sram_dout1[11]
*212 sram_dout1[120]
*213 sram_dout1[121]
*214 sram_dout1[122]
*215 sram_dout1[123]
*216 sram_dout1[124]
*217 sram_dout1[125]
*218 sram_dout1[126]
*219 sram_dout1[127]
*220 sram_dout1[12]
*221 sram_dout1[13]
*222 sram_dout1[14]
*223 sram_dout1[15]
*224 sram_dout1[16]
*225 sram_dout1[17]
*226 sram_dout1[18]
*227 sram_dout1[19]
*228 sram_dout1[1]
*229 sram_dout1[20]
*230 sram_dout1[21]
*231 sram_dout1[22]
*232 sram_dout1[23]
*233 sram_dout1[24]
*234 sram_dout1[25]
*235 sram_dout1[26]
*236 sram_dout1[27]
*237 sram_dout1[28]
*238 sram_dout1[29]
*239 sram_dout1[2]
*240 sram_dout1[30]
*241 sram_dout1[31]
*242 sram_dout1[32]
*243 sram_dout1[33]
*244 sram_dout1[34]
*245 sram_dout1[35]
*246 sram_dout1[36]
*247 sram_dout1[37]
*248 sram_dout1[38]
*249 sram_dout1[39]
*250 sram_dout1[3]
*251 sram_dout1[40]
*252 sram_dout1[41]
*253 sram_dout1[42]
*254 sram_dout1[43]
*255 sram_dout1[44]
*256 sram_dout1[45]
*257 sram_dout1[46]
*258 sram_dout1[47]
*259 sram_dout1[48]
*260 sram_dout1[49]
*261 sram_dout1[4]
*262 sram_dout1[50]
*263 sram_dout1[51]
*264 sram_dout1[52]
*265 sram_dout1[53]
*266 sram_dout1[54]
*267 sram_dout1[55]
*268 sram_dout1[56]
*269 sram_dout1[57]
*270 sram_dout1[58]
*271 sram_dout1[59]
*272 sram_dout1[5]
*273 sram_dout1[60]
*274 sram_dout1[61]
*275 sram_dout1[62]
*276 sram_dout1[63]
*277 sram_dout1[64]
*278 sram_dout1[65]
*279 sram_dout1[66]
*280 sram_dout1[67]
*281 sram_dout1[68]
*282 sram_dout1[69]
*283 sram_dout1[6]
*284 sram_dout1[70]
*285 sram_dout1[71]
*286 sram_dout1[72]
*287 sram_dout1[73]
*288 sram_dout1[74]
*289 sram_dout1[75]
*290 sram_dout1[76]
*291 sram_dout1[77]
*292 sram_dout1[78]
*293 sram_dout1[79]
*294 sram_dout1[7]
*295 sram_dout1[80]
*296 sram_dout1[81]
*297 sram_dout1[82]
*298 sram_dout1[83]
*299 sram_dout1[84]
*300 sram_dout1[85]
*301 sram_dout1[86]
*302 sram_dout1[87]
*303 sram_dout1[88]
*304 sram_dout1[89]
*305 sram_dout1[8]
*306 sram_dout1[90]
*307 sram_dout1[91]
*308 sram_dout1[92]
*309 sram_dout1[93]
*310 sram_dout1[94]
*311 sram_dout1[95]
*312 sram_dout1[96]
*313 sram_dout1[97]
*314 sram_dout1[98]
*315 sram_dout1[99]
*316 sram_dout1[9]
*317 sram_web0
*318 sram_wmask0[0]
*319 sram_wmask0[1]
*320 sram_wmask0[2]
*321 sram_wmask0[3]
*323 vga_b[0]
*324 vga_b[1]
*325 vga_g[0]
*326 vga_g[1]
*327 vga_hsync
*328 vga_r[0]
*329 vga_r[1]
*330 vga_vsync
*332 wb_ack_o
*333 wb_adr_i[0]
*334 wb_adr_i[10]
*335 wb_adr_i[11]
*336 wb_adr_i[12]
*337 wb_adr_i[13]
*338 wb_adr_i[14]
*339 wb_adr_i[15]
*340 wb_adr_i[16]
*341 wb_adr_i[17]
*342 wb_adr_i[18]
*343 wb_adr_i[19]
*344 wb_adr_i[1]
*345 wb_adr_i[20]
*346 wb_adr_i[21]
*347 wb_adr_i[22]
*348 wb_adr_i[23]
*349 wb_adr_i[2]
*350 wb_adr_i[3]
*351 wb_adr_i[4]
*352 wb_adr_i[5]
*353 wb_adr_i[6]
*354 wb_adr_i[7]
*355 wb_adr_i[8]
*356 wb_adr_i[9]
*357 wb_clk_i
*358 wb_cyc_i
*359 wb_data_i[0]
*360 wb_data_i[10]
*361 wb_data_i[11]
*362 wb_data_i[12]
*363 wb_data_i[13]
*364 wb_data_i[14]
*365 wb_data_i[15]
*366 wb_data_i[16]
*367 wb_data_i[17]
*368 wb_data_i[18]
*369 wb_data_i[19]
*370 wb_data_i[1]
*371 wb_data_i[20]
*372 wb_data_i[21]
*373 wb_data_i[22]
*374 wb_data_i[23]
*375 wb_data_i[24]
*376 wb_data_i[25]
*377 wb_data_i[26]
*378 wb_data_i[27]
*379 wb_data_i[28]
*380 wb_data_i[29]
*381 wb_data_i[2]
*382 wb_data_i[30]
*383 wb_data_i[31]
*384 wb_data_i[3]
*385 wb_data_i[4]
*386 wb_data_i[5]
*387 wb_data_i[6]
*388 wb_data_i[7]
*389 wb_data_i[8]
*390 wb_data_i[9]
*391 wb_data_o[0]
*392 wb_data_o[10]
*393 wb_data_o[11]
*394 wb_data_o[12]
*395 wb_data_o[13]
*396 wb_data_o[14]
*397 wb_data_o[15]
*398 wb_data_o[16]
*399 wb_data_o[17]
*400 wb_data_o[18]
*401 wb_data_o[19]
*402 wb_data_o[1]
*403 wb_data_o[20]
*404 wb_data_o[21]
*405 wb_data_o[22]
*406 wb_data_o[23]
*407 wb_data_o[24]
*408 wb_data_o[25]
*409 wb_data_o[26]
*410 wb_data_o[27]
*411 wb_data_o[28]
*412 wb_data_o[29]
*413 wb_data_o[2]
*414 wb_data_o[30]
*415 wb_data_o[31]
*416 wb_data_o[3]
*417 wb_data_o[4]
*418 wb_data_o[5]
*419 wb_data_o[6]
*420 wb_data_o[7]
*421 wb_data_o[8]
*422 wb_data_o[9]
*423 net418
*424 wb_rst_i
*425 wb_sel_i[0]
*426 wb_sel_i[1]
*427 wb_sel_i[2]
*428 wb_sel_i[3]
*429 wb_stall_o
*430 wb_stb_i
*431 wb_we_i
*432 _0000_
*433 _0001_
*434 _0002_
*435 _0003_
*436 _0004_
*437 _0005_
*438 _0006_
*439 _0007_
*440 _0008_
*441 _0009_
*442 _0010_
*443 _0011_
*444 _0012_
*445 _0013_
*446 _0014_
*447 _0015_
*448 _0016_
*449 _0017_
*450 _0018_
*451 _0019_
*452 _0020_
*453 _0021_
*454 _0022_
*455 _0023_
*456 _0024_
*457 _0025_
*458 _0026_
*459 _0027_
*460 _0028_
*461 _0029_
*462 _0030_
*463 _0031_
*464 _0032_
*465 _0033_
*466 _0034_
*467 _0035_
*468 _0036_
*469 _0037_
*470 _0038_
*471 _0039_
*472 _0040_
*473 _0041_
*474 _0042_
*475 _0043_
*476 _0044_
*477 _0045_
*478 _0046_
*479 _0047_
*480 _0048_
*481 _0049_
*482 _0050_
*483 _0051_
*484 _0052_
*485 _0053_
*486 _0054_
*487 _0055_
*488 _0056_
*489 _0057_
*490 _0058_
*491 _0059_
*492 _0060_
*493 _0061_
*494 _0062_
*495 _0063_
*496 _0064_
*497 _0065_
*498 _0066_
*499 _0067_
*500 _0068_
*501 _0069_
*502 _0070_
*503 _0071_
*504 _0072_
*505 _0073_
*506 _0074_
*507 _0075_
*508 _0076_
*509 _0077_
*510 _0078_
*511 _0079_
*512 _0080_
*513 _0081_
*514 _0082_
*515 _0083_
*516 _0084_
*517 _0085_
*518 _0086_
*519 _0087_
*520 _0088_
*521 _0089_
*522 _0090_
*523 _0091_
*524 _0092_
*525 _0093_
*526 _0094_
*527 _0095_
*528 _0096_
*529 _0097_
*530 _0098_
*531 _0099_
*532 _0100_
*533 _0101_
*534 _0102_
*535 _0103_
*536 _0104_
*537 _0105_
*538 _0106_
*539 _0107_
*540 _0108_
*541 _0109_
*542 _0110_
*543 _0111_
*544 _0112_
*545 _0113_
*546 _0114_
*547 _0115_
*548 _0116_
*549 _0117_
*550 _0118_
*551 _0119_
*552 _0120_
*553 _0121_
*554 _0122_
*555 _0123_
*556 _0124_
*557 _0125_
*558 _0126_
*559 _0127_
*560 _0128_
*561 _0129_
*562 _0130_
*563 _0131_
*564 _0132_
*565 _0133_
*566 _0134_
*567 _0135_
*568 _0136_
*569 _0137_
*570 _0138_
*571 _0139_
*572 _0140_
*573 _0141_
*574 _0142_
*575 _0143_
*576 _0144_
*577 _0145_
*578 _0146_
*579 _0147_
*580 _0148_
*581 _0149_
*582 _0150_
*583 _0151_
*584 _0152_
*585 _0153_
*586 _0154_
*587 _0155_
*588 _0156_
*589 _0157_
*590 _0158_
*591 _0159_
*592 _0160_
*593 _0161_
*594 _0162_
*595 _0163_
*596 _0164_
*597 _0165_
*598 _0166_
*599 _0167_
*600 _0168_
*601 _0169_
*602 _0170_
*603 _0171_
*604 _0172_
*605 _0173_
*606 _0174_
*607 _0175_
*608 _0176_
*609 _0177_
*610 _0178_
*611 _0179_
*612 _0180_
*613 _0181_
*614 _0182_
*615 _0183_
*616 _0184_
*617 _0185_
*618 _0186_
*619 _0187_
*620 _0188_
*621 _0189_
*622 _0190_
*623 _0191_
*624 _0192_
*625 _0193_
*626 _0194_
*627 _0195_
*628 _0196_
*629 _0197_
*630 _0198_
*631 _0199_
*632 _0200_
*633 _0201_
*634 _0202_
*635 _0203_
*636 _0204_
*637 _0205_
*638 _0206_
*639 _0207_
*640 _0208_
*641 _0209_
*642 _0210_
*643 _0211_
*644 _0212_
*645 _0213_
*646 _0214_
*647 _0215_
*648 _0216_
*649 _0217_
*650 _0218_
*651 _0219_
*652 _0220_
*653 _0221_
*654 _0222_
*655 _0223_
*656 _0224_
*657 _0225_
*658 _0226_
*659 _0227_
*660 _0228_
*661 _0229_
*662 _0230_
*663 _0231_
*664 _0232_
*665 _0233_
*666 _0234_
*667 _0235_
*668 _0236_
*669 _0237_
*670 _0238_
*671 _0239_
*672 _0240_
*673 _0241_
*674 _0242_
*675 _0243_
*676 _0244_
*677 _0245_
*678 _0246_
*679 _0247_
*680 _0248_
*681 _0249_
*682 _0250_
*683 _0251_
*684 _0252_
*685 _0253_
*686 _0254_
*687 _0255_
*688 _0256_
*689 _0257_
*690 _0258_
*691 _0259_
*692 _0260_
*693 _0261_
*694 _0262_
*695 _0263_
*696 _0264_
*697 _0265_
*698 _0266_
*699 _0267_
*700 _0268_
*701 _0269_
*702 _0270_
*703 _0271_
*704 _0272_
*705 _0273_
*706 _0274_
*707 _0275_
*708 _0276_
*709 _0277_
*710 _0278_
*711 _0279_
*712 _0280_
*713 _0281_
*714 _0282_
*715 _0283_
*716 _0284_
*717 _0285_
*718 _0286_
*719 _0287_
*720 _0288_
*721 _0289_
*722 _0290_
*723 _0291_
*724 _0292_
*725 _0293_
*726 _0294_
*727 _0295_
*728 _0296_
*729 _0297_
*730 _0298_
*731 _0299_
*732 _0300_
*733 _0301_
*734 _0302_
*735 _0303_
*736 _0304_
*737 _0305_
*738 _0306_
*739 _0307_
*740 _0308_
*741 _0309_
*742 _0310_
*743 _0311_
*744 _0312_
*745 _0313_
*746 _0314_
*747 _0315_
*748 _0316_
*749 _0317_
*750 _0318_
*751 _0319_
*752 _0320_
*753 _0321_
*754 _0322_
*755 _0323_
*756 _0324_
*757 _0325_
*758 _0326_
*759 _0327_
*760 _0328_
*761 _0329_
*762 _0330_
*763 _0331_
*764 _0332_
*765 _0333_
*766 _0334_
*767 _0335_
*768 _0336_
*769 _0337_
*770 _0338_
*771 _0339_
*772 _0340_
*773 _0341_
*774 _0342_
*775 _0343_
*776 _0344_
*777 _0345_
*778 _0346_
*779 _0347_
*780 _0348_
*781 _0349_
*782 _0350_
*783 _0351_
*784 _0352_
*785 _0353_
*786 _0354_
*787 _0355_
*788 _0356_
*789 _0357_
*790 _0358_
*791 _0359_
*792 _0360_
*793 _0361_
*794 _0362_
*795 _0363_
*796 _0364_
*797 _0365_
*798 _0366_
*799 _0367_
*800 _0368_
*801 _0369_
*802 _0370_
*803 _0371_
*804 _0372_
*805 _0373_
*806 _0374_
*807 _0375_
*808 _0376_
*809 _0377_
*810 _0378_
*811 _0379_
*812 _0380_
*813 _0381_
*814 _0382_
*815 _0383_
*816 _0384_
*817 _0385_
*818 _0386_
*819 _0387_
*820 _0388_
*821 _0389_
*822 _0390_
*823 _0391_
*824 _0392_
*825 _0393_
*826 _0394_
*827 _0395_
*828 _0396_
*829 _0397_
*830 _0398_
*831 _0399_
*832 _0400_
*833 _0401_
*834 _0402_
*835 _0403_
*836 _0404_
*837 _0405_
*838 _0406_
*839 _0407_
*840 _0408_
*841 _0409_
*842 _0410_
*843 _0411_
*844 _0412_
*845 _0413_
*846 _0414_
*847 _0415_
*848 _0416_
*849 _0417_
*850 _0418_
*851 _0419_
*852 _0420_
*853 _0421_
*854 _0422_
*855 _0423_
*856 _0424_
*857 _0425_
*858 _0426_
*859 _0427_
*860 _0428_
*861 _0429_
*862 _0430_
*863 _0431_
*864 _0432_
*865 _0433_
*866 _0434_
*867 _0435_
*868 _0436_
*869 _0437_
*870 _0438_
*871 _0439_
*872 _0440_
*873 _0441_
*874 _0442_
*875 _0443_
*876 _0444_
*877 _0445_
*878 _0446_
*879 _0447_
*880 _0448_
*881 _0449_
*882 _0450_
*883 _0451_
*884 _0452_
*885 _0453_
*886 _0454_
*887 _0455_
*888 _0456_
*889 _0457_
*890 _0458_
*891 _0459_
*892 _0460_
*893 _0461_
*894 _0462_
*895 _0463_
*896 _0464_
*897 _0465_
*898 _0466_
*899 _0467_
*900 _0468_
*901 _0469_
*902 _0470_
*903 _0471_
*904 _0472_
*905 _0473_
*906 _0474_
*907 _0475_
*908 _0476_
*909 _0477_
*910 _0478_
*911 _0479_
*912 _0480_
*913 _0481_
*914 _0482_
*915 _0483_
*916 _0484_
*917 _0485_
*918 _0486_
*919 _0487_
*920 _0488_
*921 _0489_
*922 _0490_
*923 _0491_
*924 _0492_
*925 _0493_
*926 _0494_
*927 _0495_
*928 _0496_
*929 _0497_
*930 _0498_
*931 _0499_
*932 _0500_
*933 _0501_
*934 _0502_
*935 _0503_
*936 _0504_
*937 _0505_
*938 _0506_
*939 _0507_
*940 _0508_
*941 _0509_
*942 _0510_
*943 _0511_
*944 _0512_
*945 _0513_
*946 _0514_
*947 _0515_
*948 _0516_
*949 _0517_
*950 _0518_
*951 _0519_
*952 _0520_
*953 _0521_
*954 _0522_
*955 _0523_
*956 _0524_
*957 _0525_
*958 _0526_
*959 _0527_
*960 _0528_
*961 _0529_
*962 _0530_
*963 _0531_
*964 _0532_
*965 _0533_
*966 _0534_
*967 _0535_
*968 _0536_
*969 _0537_
*970 _0538_
*971 _0539_
*972 _0540_
*973 _0541_
*974 _0542_
*975 _0543_
*976 _0544_
*977 _0545_
*978 _0546_
*979 _0547_
*980 _0548_
*981 _0549_
*982 _0550_
*983 _0551_
*984 _0552_
*985 _0553_
*986 _0554_
*987 _0555_
*988 _0556_
*989 _0557_
*990 _0558_
*991 _0559_
*992 _0560_
*993 _0561_
*994 _0562_
*995 _0563_
*996 _0564_
*997 _0565_
*998 _0566_
*999 _0567_
*1000 _0568_
*1001 _0569_
*1002 _0570_
*1003 _0571_
*1004 _0572_
*1005 _0573_
*1006 _0574_
*1007 _0575_
*1008 _0576_
*1009 _0577_
*1010 _0578_
*1011 _0579_
*1012 _0580_
*1013 _0581_
*1014 _0582_
*1015 _0583_
*1016 _0584_
*1017 _0585_
*1018 _0586_
*1019 _0587_
*1020 _0588_
*1021 _0589_
*1022 _0590_
*1023 _0591_
*1024 _0592_
*1025 _0593_
*1026 _0594_
*1027 _0595_
*1028 _0596_
*1029 _0597_
*1030 _0598_
*1031 _0599_
*1032 _0600_
*1033 _0601_
*1034 _0602_
*1035 _0603_
*1036 _0604_
*1037 _0605_
*1038 _0606_
*1039 _0607_
*1040 _0608_
*1041 _0609_
*1042 _0610_
*1043 _0611_
*1044 _0612_
*1045 _0613_
*1046 _0614_
*1047 _0615_
*1048 _0616_
*1049 _0617_
*1050 _0618_
*1051 _0619_
*1052 _0620_
*1053 _0621_
*1054 _0622_
*1055 _0623_
*1056 _0624_
*1057 _0625_
*1058 _0626_
*1059 _0627_
*1060 _0628_
*1061 _0629_
*1062 _0630_
*1063 _0631_
*1064 _0632_
*1065 _0633_
*1066 _0634_
*1067 _0635_
*1068 _0636_
*1069 _0637_
*1070 _0638_
*1071 _0639_
*1072 _0640_
*1073 _0641_
*1074 _0642_
*1075 _0643_
*1076 _0644_
*1077 _0645_
*1078 _0646_
*1079 _0647_
*1080 _0648_
*1081 _0649_
*1082 _0650_
*1083 _0651_
*1084 _0652_
*1085 _0653_
*1086 _0654_
*1087 _0655_
*1088 _0656_
*1089 _0657_
*1090 _0658_
*1091 _0659_
*1092 _0660_
*1093 _0661_
*1094 _0662_
*1095 _0663_
*1096 _0664_
*1097 _0665_
*1098 _0666_
*1099 _0667_
*1100 _0668_
*1101 _0669_
*1102 _0670_
*1103 _0671_
*1104 _0672_
*1105 _0673_
*1106 _0674_
*1107 _0675_
*1108 _0676_
*1109 _0677_
*1110 _0678_
*1111 _0679_
*1112 _0680_
*1113 _0681_
*1114 _0682_
*1115 _0683_
*1116 _0684_
*1117 _0685_
*1118 _0686_
*1119 _0687_
*1120 _0688_
*1121 _0689_
*1122 _0690_
*1123 _0691_
*1124 _0692_
*1125 _0693_
*1126 _0694_
*1127 _0695_
*1128 _0696_
*1129 _0697_
*1130 _0698_
*1131 _0699_
*1132 _0700_
*1133 _0701_
*1134 _0702_
*1135 _0703_
*1136 _0704_
*1137 _0705_
*1138 _0706_
*1139 _0707_
*1140 _0708_
*1141 _0709_
*1142 _0710_
*1143 _0711_
*1144 _0712_
*1145 _0713_
*1146 _0714_
*1147 _0715_
*1148 _0716_
*1149 _0717_
*1150 _0718_
*1151 _0719_
*1152 _0720_
*1153 _0721_
*1154 _0722_
*1155 _0723_
*1156 _0724_
*1157 _0725_
*1158 _0726_
*1159 _0727_
*1160 _0728_
*1161 _0729_
*1162 _0730_
*1163 _0731_
*1164 _0732_
*1165 _0733_
*1166 _0734_
*1167 _0735_
*1168 _0736_
*1169 _0737_
*1170 _0738_
*1171 _0739_
*1172 _0740_
*1173 _0741_
*1174 _0742_
*1175 _0743_
*1176 _0744_
*1177 _0745_
*1178 _0746_
*1179 _0747_
*1180 _0748_
*1181 _0749_
*1182 _0750_
*1183 _0751_
*1184 _0752_
*1185 _0753_
*1186 _0754_
*1187 _0755_
*1188 _0756_
*1189 _0757_
*1190 _0758_
*1191 _0759_
*1192 _0760_
*1193 _0761_
*1194 _0762_
*1195 _0763_
*1196 _0764_
*1197 _0765_
*1198 _0766_
*1199 _0767_
*1200 _0768_
*1201 _0769_
*1202 _0770_
*1203 _0771_
*1204 _0772_
*1205 _0773_
*1206 _0774_
*1207 _0775_
*1208 _0776_
*1209 _0777_
*1210 _0778_
*1211 _0779_
*1212 _0780_
*1213 _0781_
*1214 _0782_
*1215 _0783_
*1216 _0784_
*1217 _0785_
*1218 _0786_
*1219 _0787_
*1220 _0788_
*1221 _0789_
*1222 _0790_
*1223 _0791_
*1224 _0792_
*1225 _0793_
*1226 _0794_
*1227 _0795_
*1228 _0796_
*1229 _0797_
*1230 _0798_
*1231 _0799_
*1232 _0800_
*1233 _0801_
*1234 _0802_
*1235 _0803_
*1236 _0804_
*1237 _0805_
*1238 _0806_
*1239 _0807_
*1240 _0808_
*1241 _0809_
*1242 _0810_
*1243 _0811_
*1244 _0812_
*1245 _0813_
*1246 _0814_
*1247 _0815_
*1248 _0816_
*1249 _0817_
*1250 _0818_
*1251 _0819_
*1252 _0820_
*1253 _0821_
*1254 _0822_
*1255 _0823_
*1256 _0824_
*1257 _0825_
*1258 _0826_
*1259 _0827_
*1260 _0828_
*1261 _0829_
*1262 _0830_
*1263 _0831_
*1264 _0832_
*1265 _0833_
*1266 _0834_
*1267 _0835_
*1268 _0836_
*1269 _0837_
*1270 _0838_
*1271 _0839_
*1272 _0840_
*1273 _0841_
*1274 _0842_
*1275 _0843_
*1276 _0844_
*1277 _0845_
*1278 _0846_
*1279 _0847_
*1280 _0848_
*1281 _0849_
*1282 _0850_
*1283 _0851_
*1284 _0852_
*1285 _0853_
*1286 _0854_
*1287 _0855_
*1288 _0856_
*1289 _0857_
*1290 _0858_
*1291 _0859_
*1292 _0860_
*1293 _0861_
*1294 _0862_
*1295 _0863_
*1296 _0864_
*1297 _0865_
*1298 _0866_
*1299 _0867_
*1300 _0868_
*1301 _0869_
*1302 _0870_
*1303 _0871_
*1304 _0872_
*1305 _0873_
*1306 _0874_
*1307 _0875_
*1308 _0876_
*1309 _0877_
*1310 _0878_
*1311 _0879_
*1312 _0880_
*1313 _0881_
*1314 _0882_
*1315 _0883_
*1316 _0884_
*1317 _0885_
*1318 _0886_
*1319 _0887_
*1320 _0888_
*1321 _0889_
*1322 _0890_
*1323 _0891_
*1324 _0892_
*1325 _0893_
*1326 _0894_
*1327 _0895_
*1328 _0896_
*1329 _0897_
*1330 _0898_
*1331 _0899_
*1332 _0900_
*1333 _0901_
*1334 _0902_
*1335 _0903_
*1336 _0904_
*1337 _0905_
*1338 _0906_
*1339 _0907_
*1340 _0908_
*1341 _0909_
*1342 _0910_
*1343 _0911_
*1344 _0912_
*1345 _0913_
*1346 _0914_
*1347 _0915_
*1348 _0916_
*1349 _0917_
*1350 _0918_
*1351 _0919_
*1352 _0920_
*1353 _0921_
*1354 _0922_
*1355 _0923_
*1356 _0924_
*1357 _0925_
*1358 _0926_
*1359 _0927_
*1360 _0928_
*1361 _0929_
*1362 _0930_
*1363 _0931_
*1364 _0932_
*1365 _0933_
*1366 _0934_
*1367 _0935_
*1368 _0936_
*1369 _0937_
*1370 _0938_
*1371 _0939_
*1372 _0940_
*1373 _0941_
*1374 _0942_
*1375 _0943_
*1376 _0944_
*1377 _0945_
*1378 _0946_
*1379 _0947_
*1380 _0948_
*1381 _0949_
*1382 _0950_
*1383 _0951_
*1384 _0952_
*1385 _0953_
*1386 _0954_
*1387 _0955_
*1388 _0956_
*1389 _0957_
*1390 _0958_
*1391 _0959_
*1392 _0960_
*1393 _0961_
*1394 _0962_
*1395 _0963_
*1396 _0964_
*1397 _0965_
*1398 _0966_
*1399 _0967_
*1400 _0968_
*1401 _0969_
*1402 _0970_
*1403 _0971_
*1404 _0972_
*1405 _0973_
*1406 _0974_
*1407 _0975_
*1408 _0976_
*1409 _0977_
*1410 _0978_
*1411 _0979_
*1412 _0980_
*1413 _0981_
*1414 _0982_
*1415 _0983_
*1416 _0984_
*1417 _0985_
*1418 _0986_
*1419 _0987_
*1420 _0988_
*1421 _0989_
*1422 _0990_
*1423 _0991_
*1424 _0992_
*1425 _0993_
*1426 _0994_
*1427 _0995_
*1428 _0996_
*1429 _0997_
*1430 _0998_
*1431 _0999_
*1432 _1000_
*1433 _1001_
*1434 _1002_
*1435 _1003_
*1436 _1004_
*1437 _1005_
*1438 _1006_
*1439 _1007_
*1440 _1008_
*1441 _1009_
*1442 _1010_
*1443 _1011_
*1444 _1012_
*1445 _1013_
*1446 _1014_
*1447 _1015_
*1448 _1016_
*1449 _1017_
*1450 _1018_
*1451 _1019_
*1452 _1020_
*1453 _1021_
*1454 _1022_
*1455 _1023_
*1456 _1024_
*1457 _1025_
*1458 _1026_
*1459 _1027_
*1460 _1028_
*1461 _1029_
*1462 _1030_
*1463 _1031_
*1464 _1032_
*1465 _1033_
*1466 _1034_
*1467 _1035_
*1468 _1036_
*1469 _1037_
*1470 _1038_
*1471 _1039_
*1472 _1040_
*1473 _1041_
*1474 _1042_
*1475 _1043_
*1476 _1044_
*1477 _1045_
*1478 _1046_
*1479 _1047_
*1480 _1048_
*1481 _1049_
*1482 _1050_
*1483 _1051_
*1484 _1052_
*1485 _1053_
*1486 _1054_
*1487 _1055_
*1488 _1056_
*1489 _1057_
*1490 _1058_
*1491 _1059_
*1492 _1060_
*1493 _1061_
*1494 _1062_
*1495 _1063_
*1496 _1064_
*1497 _1065_
*1498 _1066_
*1499 _1067_
*1500 _1068_
*1501 _1069_
*1502 _1070_
*1503 _1071_
*1504 _1072_
*1505 _1073_
*1506 _1074_
*1507 _1075_
*1508 _1076_
*1509 _1077_
*1510 _1078_
*1511 _1079_
*1512 _1080_
*1513 _1081_
*1514 _1082_
*1515 _1083_
*1516 _1084_
*1517 _1085_
*1518 _1086_
*1519 _1087_
*1520 _1088_
*1521 _1089_
*1522 _1090_
*1523 _1091_
*1524 _1092_
*1525 _1093_
*1526 _1094_
*1527 _1095_
*1528 _1096_
*1529 _1097_
*1530 _1098_
*1531 _1099_
*1532 _1100_
*1533 _1101_
*1534 clknet_0_wb_clk_i
*1535 clknet_1_0_0_wb_clk_i
*1536 clknet_1_1_0_wb_clk_i
*1537 clknet_2_0_0_wb_clk_i
*1538 clknet_2_1_0_wb_clk_i
*1539 clknet_2_2_0_wb_clk_i
*1540 clknet_2_3_0_wb_clk_i
*1541 clknet_3_0_0_wb_clk_i
*1542 clknet_3_1_0_wb_clk_i
*1543 clknet_3_2_0_wb_clk_i
*1544 clknet_3_3_0_wb_clk_i
*1545 clknet_3_4_0_wb_clk_i
*1546 clknet_3_5_0_wb_clk_i
*1547 clknet_3_6_0_wb_clk_i
*1548 clknet_3_7_0_wb_clk_i
*1549 clknet_4_0_0_wb_clk_i
*1550 clknet_4_10_0_wb_clk_i
*1551 clknet_4_11_0_wb_clk_i
*1552 clknet_4_12_0_wb_clk_i
*1553 clknet_4_13_0_wb_clk_i
*1554 clknet_4_14_0_wb_clk_i
*1555 clknet_4_15_0_wb_clk_i
*1556 clknet_4_1_0_wb_clk_i
*1557 clknet_4_2_0_wb_clk_i
*1558 clknet_4_3_0_wb_clk_i
*1559 clknet_4_4_0_wb_clk_i
*1560 clknet_4_5_0_wb_clk_i
*1561 clknet_4_6_0_wb_clk_i
*1562 clknet_4_7_0_wb_clk_i
*1563 clknet_4_8_0_wb_clk_i
*1564 clknet_4_9_0_wb_clk_i
*1565 net1
*1566 net10
*1567 net100
*1568 net101
*1569 net102
*1570 net103
*1571 net104
*1572 net105
*1573 net106
*1574 net107
*1575 net108
*1576 net109
*1577 net11
*1578 net110
*1579 net111
*1580 net112
*1581 net113
*1582 net114
*1583 net115
*1584 net116
*1585 net117
*1586 net118
*1587 net119
*1588 net12
*1589 net120
*1590 net121
*1591 net122
*1592 net123
*1593 net124
*1594 net125
*1595 net126
*1596 net127
*1597 net128
*1598 net129
*1599 net13
*1600 net130
*1601 net131
*1602 net132
*1603 net133
*1604 net134
*1605 net135
*1606 net136
*1607 net137
*1608 net138
*1609 net139
*1610 net14
*1611 net140
*1612 net141
*1613 net142
*1614 net143
*1615 net144
*1616 net145
*1617 net146
*1618 net147
*1619 net148
*1620 net149
*1621 net15
*1622 net150
*1623 net151
*1624 net152
*1625 net153
*1626 net154
*1627 net155
*1628 net156
*1629 net157
*1630 net158
*1631 net159
*1632 net16
*1633 net160
*1634 net161
*1635 net162
*1636 net163
*1637 net164
*1638 net165
*1639 net166
*1640 net167
*1641 net168
*1642 net169
*1643 net17
*1644 net170
*1645 net171
*1646 net172
*1647 net173
*1648 net174
*1649 net175
*1650 net176
*1651 net177
*1652 net178
*1653 net179
*1654 net18
*1655 net180
*1656 net181
*1657 net182
*1658 net183
*1659 net184
*1660 net185
*1661 net186
*1662 net187
*1663 net188
*1664 net189
*1665 net19
*1666 net190
*1667 net191
*1668 net192
*1669 net193
*1670 net194
*1671 net195
*1672 net196
*1673 net197
*1674 net198
*1675 net199
*1676 net2
*1677 net20
*1678 net200
*1679 net201
*1680 net202
*1681 net203
*1682 net204
*1683 net205
*1684 net206
*1685 net207
*1686 net208
*1687 net209
*1688 net21
*1689 net210
*1690 net211
*1691 net212
*1692 net213
*1693 net214
*1694 net215
*1695 net216
*1696 net217
*1697 net218
*1698 net219
*1699 net22
*1700 net220
*1701 net221
*1702 net222
*1703 net223
*1704 net224
*1705 net225
*1706 net226
*1707 net227
*1708 net228
*1709 net229
*1710 net23
*1711 net230
*1712 net231
*1713 net232
*1714 net233
*1715 net234
*1716 net235
*1717 net236
*1718 net237
*1719 net238
*1720 net239
*1721 net24
*1722 net240
*1723 net241
*1724 net242
*1725 net243
*1726 net244
*1727 net245
*1728 net246
*1729 net247
*1730 net248
*1731 net249
*1732 net25
*1733 net250
*1734 net251
*1735 net252
*1736 net253
*1737 net254
*1738 net255
*1739 net256
*1740 net257
*1741 net258
*1742 net259
*1743 net26
*1744 net260
*1745 net261
*1746 net262
*1747 net263
*1748 net264
*1749 net265
*1750 net266
*1751 net267
*1752 net268
*1753 net269
*1754 net27
*1755 net270
*1756 net271
*1757 net272
*1758 net273
*1759 net274
*1760 net275
*1761 net276
*1762 net277
*1763 net278
*1764 net279
*1765 net28
*1766 net280
*1767 net281
*1768 net282
*1769 net283
*1770 net284
*1771 net285
*1772 net286
*1773 net287
*1774 net288
*1775 net289
*1776 net29
*1777 net290
*1778 net291
*1779 net292
*1780 net293
*1781 net294
*1782 net295
*1783 net296
*1784 net297
*1785 net298
*1786 net299
*1787 net3
*1788 net30
*1789 net300
*1790 net301
*1791 net302
*1792 net303
*1793 net304
*1794 net305
*1795 net306
*1796 net307
*1797 net308
*1798 net309
*1799 net31
*1800 net310
*1801 net311
*1802 net312
*1803 net313
*1804 net314
*1805 net315
*1806 net316
*1807 net317
*1808 net318
*1809 net319
*1810 net32
*1811 net320
*1812 net321
*1813 net322
*1814 net323
*1815 net324
*1816 net325
*1817 net326
*1818 net327
*1819 net328
*1820 net329
*1821 net33
*1822 net330
*1823 net331
*1824 net332
*1825 net333
*1826 net334
*1827 net335
*1828 net336
*1829 net337
*1830 net338
*1831 net339
*1832 net34
*1833 net340
*1834 net341
*1835 net342
*1836 net343
*1837 net344
*1838 net345
*1839 net346
*1840 net347
*1841 net348
*1842 net349
*1843 net35
*1844 net350
*1845 net351
*1846 net352
*1847 net353
*1848 net354
*1849 net355
*1850 net356
*1851 net357
*1852 net358
*1853 net359
*1854 net36
*1855 net360
*1856 net361
*1857 net362
*1858 net363
*1859 net364
*1860 net365
*1861 net366
*1862 net367
*1863 net368
*1864 net369
*1865 net37
*1866 net370
*1867 net371
*1868 net372
*1869 net373
*1870 net374
*1871 net375
*1872 net376
*1873 net377
*1874 net378
*1875 net379
*1876 net38
*1877 net380
*1878 net381
*1879 net382
*1880 net383
*1881 net384
*1882 net385
*1883 net386
*1884 net387
*1885 net388
*1886 net389
*1887 net39
*1888 net390
*1889 net391
*1890 net392
*1891 net393
*1892 net394
*1893 net395
*1894 net396
*1895 net397
*1896 net398
*1897 net399
*1898 net4
*1899 net40
*1900 net400
*1901 net401
*1902 net402
*1903 net403
*1904 net404
*1905 net405
*1906 net406
*1907 net407
*1908 net408
*1909 net409
*1910 net41
*1911 net410
*1912 net411
*1913 net412
*1914 net413
*1915 net414
*1916 net415
*1917 net416
*1918 net417
*1919 net42
*1920 net43
*1921 net44
*1922 net45
*1923 net46
*1924 net47
*1925 net48
*1926 net49
*1927 net5
*1928 net50
*1929 net51
*1930 net52
*1931 net53
*1932 net54
*1933 net55
*1934 net56
*1935 net57
*1936 net58
*1937 net59
*1938 net6
*1939 net60
*1940 net61
*1941 net62
*1942 net63
*1943 net64
*1944 net65
*1945 net66
*1946 net67
*1947 net68
*1948 net69
*1949 net7
*1950 net70
*1951 net71
*1952 net72
*1953 net73
*1954 net74
*1955 net75
*1956 net76
*1957 net77
*1958 net78
*1959 net79
*1960 net8
*1961 net80
*1962 net81
*1963 net82
*1964 net83
*1965 net84
*1966 net85
*1967 net86
*1968 net87
*1969 net88
*1970 net89
*1971 net9
*1972 net90
*1973 net91
*1974 net92
*1975 net93
*1976 net94
*1977 net95
*1978 net96
*1979 net97
*1980 net98
*1981 net99
*1982 vga\.configuration\[0\]
*1983 vga\.configuration\[1\]
*1984 vga\.configuration\[2\]
*1985 vga\.configuration\[3\]
*1986 vga\.configuration\[4\]
*1987 vga\.configuration\[5\]
*1988 vga\.configuration\[6\]
*1989 vga\.configuration\[7\]
*1990 vga\.configuration\[8\]
*1991 vga\.configuration\[9\]
*1992 vga\.horizontalCounter\[0\]
*1993 vga\.horizontalCounter\[10\]
*1994 vga\.horizontalCounter\[1\]
*1995 vga\.horizontalCounter\[2\]
*1996 vga\.horizontalCounter\[3\]
*1997 vga\.horizontalCounter\[4\]
*1998 vga\.horizontalCounter\[5\]
*1999 vga\.horizontalCounter\[6\]
*2000 vga\.horizontalCounter\[7\]
*2001 vga\.horizontalCounter\[8\]
*2002 vga\.horizontalCounter\[9\]
*2003 vga\.horizontalFrontPorchCompare\[0\]
*2004 vga\.horizontalFrontPorchCompare\[10\]
*2005 vga\.horizontalFrontPorchCompare\[1\]
*2006 vga\.horizontalFrontPorchCompare\[2\]
*2007 vga\.horizontalFrontPorchCompare\[3\]
*2008 vga\.horizontalFrontPorchCompare\[4\]
*2009 vga\.horizontalFrontPorchCompare\[5\]
*2010 vga\.horizontalFrontPorchCompare\[6\]
*2011 vga\.horizontalFrontPorchCompare\[7\]
*2012 vga\.horizontalFrontPorchCompare\[8\]
*2013 vga\.horizontalFrontPorchCompare\[9\]
*2014 vga\.horizontalSyncPulseCompare\[0\]
*2015 vga\.horizontalSyncPulseCompare\[10\]
*2016 vga\.horizontalSyncPulseCompare\[1\]
*2017 vga\.horizontalSyncPulseCompare\[2\]
*2018 vga\.horizontalSyncPulseCompare\[3\]
*2019 vga\.horizontalSyncPulseCompare\[4\]
*2020 vga\.horizontalSyncPulseCompare\[5\]
*2021 vga\.horizontalSyncPulseCompare\[6\]
*2022 vga\.horizontalSyncPulseCompare\[7\]
*2023 vga\.horizontalSyncPulseCompare\[8\]