*SPEF "ieee 1481-1999"
*DESIGN "Video"
*DATE "11:11:11 Fri 11 11, 1111"
*VENDOR "OpenRCX"
*PROGRAM "Parallel Extraction"
*VERSION "1.0"
*DESIGN_FLOW "NAME_SCOPE LOCAL" "PIN_CAP NONE"
*DIVIDER /
*DELIMITER :
*BUS_DELIMITER []
*T_UNIT 1 NS
*C_UNIT 1 PF
*R_UNIT 1 OHM
*L_UNIT 1 HENRY

*NAME_MAP
*1 sram0_addr0[0]
*2 sram0_addr0[1]
*3 sram0_addr0[2]
*4 sram0_addr0[3]
*5 sram0_addr0[4]
*6 sram0_addr0[5]
*7 sram0_addr0[6]
*8 sram0_addr0[7]
*9 sram0_addr0[8]
*10 sram0_addr1[0]
*11 sram0_addr1[1]
*12 sram0_addr1[2]
*13 sram0_addr1[3]
*14 sram0_addr1[4]
*15 sram0_addr1[5]
*16 sram0_addr1[6]
*17 sram0_addr1[7]
*18 sram0_addr1[8]
*19 sram0_clk0
*20 sram0_clk1
*21 sram0_csb0[0]
*22 sram0_csb0[1]
*23 sram0_csb1[0]
*24 sram0_csb1[1]
*25 sram0_din0[0]
*26 sram0_din0[10]
*27 sram0_din0[11]
*28 sram0_din0[12]
*29 sram0_din0[13]
*30 sram0_din0[14]
*31 sram0_din0[15]
*32 sram0_din0[16]
*33 sram0_din0[17]
*34 sram0_din0[18]
*35 sram0_din0[19]
*36 sram0_din0[1]
*37 sram0_din0[20]
*38 sram0_din0[21]
*39 sram0_din0[22]
*40 sram0_din0[23]
*41 sram0_din0[24]
*42 sram0_din0[25]
*43 sram0_din0[26]
*44 sram0_din0[27]
*45 sram0_din0[28]
*46 sram0_din0[29]
*47 sram0_din0[2]
*48 sram0_din0[30]
*49 sram0_din0[31]
*50 sram0_din0[3]
*51 sram0_din0[4]
*52 sram0_din0[5]
*53 sram0_din0[6]
*54 sram0_din0[7]
*55 sram0_din0[8]
*56 sram0_din0[9]
*57 sram0_dout0[0]
*58 sram0_dout0[10]
*59 sram0_dout0[11]
*60 sram0_dout0[12]
*61 sram0_dout0[13]
*62 sram0_dout0[14]
*63 sram0_dout0[15]
*64 sram0_dout0[16]
*65 sram0_dout0[17]
*66 sram0_dout0[18]
*67 sram0_dout0[19]
*68 sram0_dout0[1]
*69 sram0_dout0[20]
*70 sram0_dout0[21]
*71 sram0_dout0[22]
*72 sram0_dout0[23]
*73 sram0_dout0[24]
*74 sram0_dout0[25]
*75 sram0_dout0[26]
*76 sram0_dout0[27]
*77 sram0_dout0[28]
*78 sram0_dout0[29]
*79 sram0_dout0[2]
*80 sram0_dout0[30]
*81 sram0_dout0[31]
*82 sram0_dout0[32]
*83 sram0_dout0[33]
*84 sram0_dout0[34]
*85 sram0_dout0[35]
*86 sram0_dout0[36]
*87 sram0_dout0[37]
*88 sram0_dout0[38]
*89 sram0_dout0[39]
*90 sram0_dout0[3]
*91 sram0_dout0[40]
*92 sram0_dout0[41]
*93 sram0_dout0[42]
*94 sram0_dout0[43]
*95 sram0_dout0[44]
*96 sram0_dout0[45]
*97 sram0_dout0[46]
*98 sram0_dout0[47]
*99 sram0_dout0[48]
*100 sram0_dout0[49]
*101 sram0_dout0[4]
*102 sram0_dout0[50]
*103 sram0_dout0[51]
*104 sram0_dout0[52]
*105 sram0_dout0[53]
*106 sram0_dout0[54]
*107 sram0_dout0[55]
*108 sram0_dout0[56]
*109 sram0_dout0[57]
*110 sram0_dout0[58]
*111 sram0_dout0[59]
*112 sram0_dout0[5]
*113 sram0_dout0[60]
*114 sram0_dout0[61]
*115 sram0_dout0[62]
*116 sram0_dout0[63]
*117 sram0_dout0[6]
*118 sram0_dout0[7]
*119 sram0_dout0[8]
*120 sram0_dout0[9]
*121 sram0_dout1[0]
*122 sram0_dout1[10]
*123 sram0_dout1[11]
*124 sram0_dout1[12]
*125 sram0_dout1[13]
*126 sram0_dout1[14]
*127 sram0_dout1[15]
*128 sram0_dout1[16]
*129 sram0_dout1[17]
*130 sram0_dout1[18]
*131 sram0_dout1[19]
*132 sram0_dout1[1]
*133 sram0_dout1[20]
*134 sram0_dout1[21]
*135 sram0_dout1[22]
*136 sram0_dout1[23]
*137 sram0_dout1[24]
*138 sram0_dout1[25]
*139 sram0_dout1[26]
*140 sram0_dout1[27]
*141 sram0_dout1[28]
*142 sram0_dout1[29]
*143 sram0_dout1[2]
*144 sram0_dout1[30]
*145 sram0_dout1[31]
*146 sram0_dout1[32]
*147 sram0_dout1[33]
*148 sram0_dout1[34]
*149 sram0_dout1[35]
*150 sram0_dout1[36]
*151 sram0_dout1[37]
*152 sram0_dout1[38]
*153 sram0_dout1[39]
*154 sram0_dout1[3]
*155 sram0_dout1[40]
*156 sram0_dout1[41]
*157 sram0_dout1[42]
*158 sram0_dout1[43]
*159 sram0_dout1[44]
*160 sram0_dout1[45]
*161 sram0_dout1[46]
*162 sram0_dout1[47]
*163 sram0_dout1[48]
*164 sram0_dout1[49]
*165 sram0_dout1[4]
*166 sram0_dout1[50]
*167 sram0_dout1[51]
*168 sram0_dout1[52]
*169 sram0_dout1[53]
*170 sram0_dout1[54]
*171 sram0_dout1[55]
*172 sram0_dout1[56]
*173 sram0_dout1[57]
*174 sram0_dout1[58]
*175 sram0_dout1[59]
*176 sram0_dout1[5]
*177 sram0_dout1[60]
*178 sram0_dout1[61]
*179 sram0_dout1[62]
*180 sram0_dout1[63]
*181 sram0_dout1[6]
*182 sram0_dout1[7]
*183 sram0_dout1[8]
*184 sram0_dout1[9]
*185 sram0_web0
*186 sram0_wmask0[0]
*187 sram0_wmask0[1]
*188 sram0_wmask0[2]
*189 sram0_wmask0[3]
*190 sram1_addr0[0]
*191 sram1_addr0[1]
*192 sram1_addr0[2]
*193 sram1_addr0[3]
*194 sram1_addr0[4]
*195 sram1_addr0[5]
*196 sram1_addr0[6]
*197 sram1_addr0[7]
*198 sram1_addr0[8]
*199 sram1_addr1[0]
*200 sram1_addr1[1]
*201 sram1_addr1[2]
*202 sram1_addr1[3]
*203 sram1_addr1[4]
*204 sram1_addr1[5]
*205 sram1_addr1[6]
*206 sram1_addr1[7]
*207 sram1_addr1[8]
*208 sram1_clk0
*209 sram1_clk1
*210 sram1_csb0[0]
*211 sram1_csb0[1]
*212 sram1_csb1[0]
*213 sram1_csb1[1]
*214 sram1_din0[0]
*215 sram1_din0[10]
*216 sram1_din0[11]
*217 sram1_din0[12]
*218 sram1_din0[13]
*219 sram1_din0[14]
*220 sram1_din0[15]
*221 sram1_din0[16]
*222 sram1_din0[17]
*223 sram1_din0[18]
*224 sram1_din0[19]
*225 sram1_din0[1]
*226 sram1_din0[20]
*227 sram1_din0[21]
*228 sram1_din0[22]
*229 sram1_din0[23]
*230 sram1_din0[24]
*231 sram1_din0[25]
*232 sram1_din0[26]
*233 sram1_din0[27]
*234 sram1_din0[28]
*235 sram1_din0[29]
*236 sram1_din0[2]
*237 sram1_din0[30]
*238 sram1_din0[31]
*239 sram1_din0[3]
*240 sram1_din0[4]
*241 sram1_din0[5]
*242 sram1_din0[6]
*243 sram1_din0[7]
*244 sram1_din0[8]
*245 sram1_din0[9]
*246 sram1_dout0[0]
*247 sram1_dout0[10]
*248 sram1_dout0[11]
*249 sram1_dout0[12]
*250 sram1_dout0[13]
*251 sram1_dout0[14]
*252 sram1_dout0[15]
*253 sram1_dout0[16]
*254 sram1_dout0[17]
*255 sram1_dout0[18]
*256 sram1_dout0[19]
*257 sram1_dout0[1]
*258 sram1_dout0[20]
*259 sram1_dout0[21]
*260 sram1_dout0[22]
*261 sram1_dout0[23]
*262 sram1_dout0[24]
*263 sram1_dout0[25]
*264 sram1_dout0[26]
*265 sram1_dout0[27]
*266 sram1_dout0[28]
*267 sram1_dout0[29]
*268 sram1_dout0[2]
*269 sram1_dout0[30]
*270 sram1_dout0[31]
*271 sram1_dout0[32]
*272 sram1_dout0[33]
*273 sram1_dout0[34]
*274 sram1_dout0[35]
*275 sram1_dout0[36]
*276 sram1_dout0[37]
*277 sram1_dout0[38]
*278 sram1_dout0[39]
*279 sram1_dout0[3]
*280 sram1_dout0[40]
*281 sram1_dout0[41]
*282 sram1_dout0[42]
*283 sram1_dout0[43]
*284 sram1_dout0[44]
*285 sram1_dout0[45]
*286 sram1_dout0[46]
*287 sram1_dout0[47]
*288 sram1_dout0[48]
*289 sram1_dout0[49]
*290 sram1_dout0[4]
*291 sram1_dout0[50]
*292 sram1_dout0[51]
*293 sram1_dout0[52]
*294 sram1_dout0[53]
*295 sram1_dout0[54]
*296 sram1_dout0[55]
*297 sram1_dout0[56]
*298 sram1_dout0[57]
*299 sram1_dout0[58]
*300 sram1_dout0[59]
*301 sram1_dout0[5]
*302 sram1_dout0[60]
*303 sram1_dout0[61]
*304 sram1_dout0[62]
*305 sram1_dout0[63]
*306 sram1_dout0[6]
*307 sram1_dout0[7]
*308 sram1_dout0[8]
*309 sram1_dout0[9]
*310 sram1_dout1[0]
*311 sram1_dout1[10]
*312 sram1_dout1[11]
*313 sram1_dout1[12]
*314 sram1_dout1[13]
*315 sram1_dout1[14]
*316 sram1_dout1[15]
*317 sram1_dout1[16]
*318 sram1_dout1[17]
*319 sram1_dout1[18]
*320 sram1_dout1[19]
*321 sram1_dout1[1]
*322 sram1_dout1[20]
*323 sram1_dout1[21]
*324 sram1_dout1[22]
*325 sram1_dout1[23]
*326 sram1_dout1[24]
*327 sram1_dout1[25]
*328 sram1_dout1[26]
*329 sram1_dout1[27]
*330 sram1_dout1[28]
*331 sram1_dout1[29]
*332 sram1_dout1[2]
*333 sram1_dout1[30]
*334 sram1_dout1[31]
*335 sram1_dout1[32]
*336 sram1_dout1[33]
*337 sram1_dout1[34]
*338 sram1_dout1[35]
*339 sram1_dout1[36]
*340 sram1_dout1[37]
*341 sram1_dout1[38]
*342 sram1_dout1[39]
*343 sram1_dout1[3]
*344 sram1_dout1[40]
*345 sram1_dout1[41]
*346 sram1_dout1[42]
*347 sram1_dout1[43]
*348 sram1_dout1[44]
*349 sram1_dout1[45]
*350 sram1_dout1[46]
*351 sram1_dout1[47]
*352 sram1_dout1[48]
*353 sram1_dout1[49]
*354 sram1_dout1[4]
*355 sram1_dout1[50]
*356 sram1_dout1[51]
*357 sram1_dout1[52]
*358 sram1_dout1[53]
*359 sram1_dout1[54]
*360 sram1_dout1[55]
*361 sram1_dout1[56]
*362 sram1_dout1[57]
*363 sram1_dout1[58]
*364 sram1_dout1[59]
*365 sram1_dout1[5]
*366 sram1_dout1[60]
*367 sram1_dout1[61]
*368 sram1_dout1[62]
*369 sram1_dout1[63]
*370 sram1_dout1[6]
*371 sram1_dout1[7]
*372 sram1_dout1[8]
*373 sram1_dout1[9]
*374 sram1_web0
*375 sram1_wmask0[0]
*376 sram1_wmask0[1]
*377 sram1_wmask0[2]
*378 sram1_wmask0[3]
*380 vga_b[0]
*381 vga_b[1]
*382 vga_g[0]
*383 vga_g[1]
*384 vga_hsync
*385 vga_r[0]
*386 vga_r[1]
*387 vga_vsync
*389 wb_ack_o
*390 wb_adr_i[0]
*391 wb_adr_i[10]
*392 wb_adr_i[11]
*393 wb_adr_i[12]
*394 wb_adr_i[13]
*395 wb_adr_i[14]
*396 wb_adr_i[15]
*397 wb_adr_i[16]
*398 wb_adr_i[17]
*399 wb_adr_i[18]
*400 wb_adr_i[19]
*401 wb_adr_i[1]
*402 wb_adr_i[20]
*403 wb_adr_i[21]
*404 wb_adr_i[22]
*405 wb_adr_i[23]
*406 wb_adr_i[2]
*407 wb_adr_i[3]
*408 wb_adr_i[4]
*409 wb_adr_i[5]
*410 wb_adr_i[6]
*411 wb_adr_i[7]
*412 wb_adr_i[8]
*413 wb_adr_i[9]
*414 wb_clk_i
*415 wb_cyc_i
*416 wb_data_i[0]
*417 wb_data_i[10]
*418 wb_data_i[11]
*419 wb_data_i[12]
*420 wb_data_i[13]
*421 wb_data_i[14]
*422 wb_data_i[15]
*423 wb_data_i[16]
*424 wb_data_i[17]
*425 wb_data_i[18]
*426 wb_data_i[19]
*427 wb_data_i[1]
*428 wb_data_i[20]
*429 wb_data_i[21]
*430 wb_data_i[22]
*431 wb_data_i[23]
*432 wb_data_i[24]
*433 wb_data_i[25]
*434 wb_data_i[26]
*435 wb_data_i[27]
*436 wb_data_i[28]
*437 wb_data_i[29]
*438 wb_data_i[2]
*439 wb_data_i[30]
*440 wb_data_i[31]
*441 wb_data_i[3]
*442 wb_data_i[4]
*443 wb_data_i[5]
*444 wb_data_i[6]
*445 wb_data_i[7]
*446 wb_data_i[8]
*447 wb_data_i[9]
*448 wb_data_o[0]
*449 wb_data_o[10]
*450 wb_data_o[11]
*451 wb_data_o[12]
*452 wb_data_o[13]
*453 wb_data_o[14]
*454 wb_data_o[15]
*455 wb_data_o[16]
*456 wb_data_o[17]
*457 wb_data_o[18]
*458 wb_data_o[19]
*459 wb_data_o[1]
*460 wb_data_o[20]
*461 wb_data_o[21]
*462 wb_data_o[22]
*463 wb_data_o[23]
*464 wb_data_o[24]
*465 wb_data_o[25]
*466 wb_data_o[26]
*467 wb_data_o[27]
*468 wb_data_o[28]
*469 wb_data_o[29]
*470 wb_data_o[2]
*471 wb_data_o[30]
*472 wb_data_o[31]
*473 wb_data_o[3]
*474 wb_data_o[4]
*475 wb_data_o[5]
*476 wb_data_o[6]
*477 wb_data_o[7]
*478 wb_data_o[8]
*479 wb_data_o[9]
*480 net475
*481 wb_rst_i
*482 wb_sel_i[0]
*483 wb_sel_i[1]
*484 wb_sel_i[2]
*485 wb_sel_i[3]
*486 wb_stall_o
*487 wb_stb_i
*488 wb_we_i
*489 _0000_
*490 _0001_
*491 _0002_
*492 _0003_
*493 _0004_
*494 _0005_
*495 _0006_
*496 _0007_
*497 _0008_
*498 _0009_
*499 _0010_
*500 _0011_
*501 _0012_
*502 _0013_
*503 _0014_
*504 _0015_
*505 _0016_
*506 _0017_
*507 _0018_
*508 _0019_
*509 _0020_
*510 _0021_
*511 _0022_
*512 _0023_
*513 _0024_
*514 _0025_
*515 _0026_
*516 _0027_
*517 _0028_
*518 _0029_
*519 _0030_
*520 _0031_
*521 _0032_
*522 _0033_
*523 _0034_
*524 _0035_
*525 _0036_
*526 _0037_
*527 _0038_
*528 _0039_
*529 _0040_
*530 _0041_
*531 _0042_
*532 _0043_
*533 _0044_
*534 _0045_
*535 _0046_
*536 _0047_
*537 _0048_
*538 _0049_
*539 _0050_
*540 _0051_
*541 _0052_
*542 _0053_
*543 _0054_
*544 _0055_
*545 _0056_
*546 _0057_
*547 _0058_
*548 _0059_
*549 _0060_
*550 _0061_
*551 _0062_
*552 _0063_
*553 _0064_
*554 _0065_
*555 _0066_
*556 _0067_
*557 _0068_
*558 _0069_
*559 _0070_
*560 _0071_
*561 _0072_
*562 _0073_
*563 _0074_
*564 _0075_
*565 _0076_
*566 _0077_
*567 _0078_
*568 _0079_
*569 _0080_
*570 _0081_
*571 _0082_
*572 _0083_
*573 _0084_
*574 _0085_
*575 _0086_
*576 _0087_
*577 _0088_
*578 _0089_
*579 _0090_
*580 _0091_
*581 _0092_
*582 _0093_
*583 _0094_
*584 _0095_
*585 _0096_
*586 _0097_
*587 _0098_
*588 _0099_
*589 _0100_
*590 _0101_
*591 _0102_
*592 _0103_
*593 _0104_
*594 _0105_
*595 _0106_
*596 _0107_
*597 _0108_
*598 _0109_
*599 _0110_
*600 _0111_
*601 _0112_
*602 _0113_
*603 _0114_
*604 _0115_
*605 _0116_
*606 _0117_
*607 _0118_
*608 _0119_
*609 _0120_
*610 _0121_
*611 _0122_
*612 _0123_
*613 _0124_
*614 _0125_
*615 _0126_
*616 _0127_
*617 _0128_
*618 _0129_
*619 _0130_
*620 _0131_
*621 _0132_
*622 _0133_
*623 _0134_
*624 _0135_
*625 _0136_
*626 _0137_
*627 _0138_
*628 _0139_
*629 _0140_
*630 _0141_
*631 _0142_
*632 _0143_
*633 _0144_
*634 _0145_
*635 _0146_
*636 _0147_
*637 _0148_
*638 _0149_
*639 _0150_
*640 _0151_
*641 _0152_
*642 _0153_
*643 _0154_
*644 _0155_
*645 _0156_
*646 _0157_
*647 _0158_
*648 _0159_
*649 _0160_
*650 _0161_
*651 _0162_
*652 _0163_
*653 _0164_
*654 _0165_
*655 _0166_
*656 _0167_
*657 _0168_
*658 _0169_
*659 _0170_
*660 _0171_
*661 _0172_
*662 _0173_
*663 _0174_
*664 _0175_
*665 _0176_
*666 _0177_
*667 _0178_
*668 _0179_
*669 _0180_
*670 _0181_
*671 _0182_
*672 _0183_
*673 _0184_
*674 _0185_
*675 _0186_
*676 _0187_
*677 _0188_
*678 _0189_
*679 _0190_
*680 _0191_
*681 _0192_
*682 _0193_
*683 _0194_
*684 _0195_
*685 _0196_
*686 _0197_
*687 _0198_
*688 _0199_
*689 _0200_
*690 _0201_
*691 _0202_
*692 _0203_
*693 _0204_
*694 _0205_
*695 _0206_
*696 _0207_
*697 _0208_
*698 _0209_
*699 _0210_
*700 _0211_
*701 _0212_
*702 _0213_
*703 _0214_
*704 _0215_
*705 _0216_
*706 _0217_
*707 _0218_
*708 _0219_
*709 _0220_
*710 _0221_
*711 _0222_
*712 _0223_
*713 _0224_
*714 _0225_
*715 _0226_
*716 _0227_
*717 _0228_
*718 _0229_
*719 _0230_
*720 _0231_
*721 _0232_
*722 _0233_
*723 _0234_
*724 _0235_
*725 _0236_
*726 _0237_
*727 _0238_
*728 _0239_
*729 _0240_
*730 _0241_
*731 _0242_
*732 _0243_
*733 _0244_
*734 _0245_
*735 _0246_
*736 _0247_
*737 _0248_
*738 _0249_
*739 _0250_
*740 _0251_
*741 _0252_
*742 _0253_
*743 _0254_
*744 _0255_
*745 _0256_
*746 _0257_
*747 _0258_
*748 _0259_
*749 _0260_
*750 _0261_
*751 _0262_
*752 _0263_
*753 _0264_
*754 _0265_
*755 _0266_
*756 _0267_
*757 _0268_
*758 _0269_
*759 _0270_
*760 _0271_
*761 _0272_
*762 _0273_
*763 _0274_
*764 _0275_
*765 _0276_
*766 _0277_
*767 _0278_
*768 _0279_
*769 _0280_
*770 _0281_
*771 _0282_
*772 _0283_
*773 _0284_
*774 _0285_
*775 _0286_
*776 _0287_
*777 _0288_
*778 _0289_
*779 _0290_
*780 _0291_
*781 _0292_
*782 _0293_
*783 _0294_
*784 _0295_
*785 _0296_
*786 _0297_
*787 _0298_
*788 _0299_
*789 _0300_
*790 _0301_
*791 _0302_
*792 _0303_
*793 _0304_
*794 _0305_
*795 _0306_
*796 _0307_
*797 _0308_
*798 _0309_
*799 _0310_
*800 _0311_
*801 _0312_
*802 _0313_
*803 _0314_
*804 _0315_
*805 _0316_
*806 _0317_
*807 _0318_
*808 _0319_
*809 _0320_
*810 _0321_
*811 _0322_
*812 _0323_
*813 _0324_
*814 _0325_
*815 _0326_
*816 _0327_
*817 _0328_
*818 _0329_
*819 _0330_
*820 _0331_
*821 _0332_
*822 _0333_
*823 _0334_
*824 _0335_
*825 _0336_
*826 _0337_
*827 _0338_
*828 _0339_
*829 _0340_
*830 _0341_
*831 _0342_
*832 _0343_
*833 _0344_
*834 _0345_
*835 _0346_
*836 _0347_
*837 _0348_
*838 _0349_
*839 _0350_
*840 _0351_
*841 _0352_
*842 _0353_
*843 _0354_
*844 _0355_
*845 _0356_
*846 _0357_
*847 _0358_
*848 _0359_
*849 _0360_
*850 _0361_
*851 _0362_
*852 _0363_
*853 _0364_
*854 _0365_
*855 _0366_
*856 _0367_
*857 _0368_
*858 _0369_
*859 _0370_
*860 _0371_
*861 _0372_
*862 _0373_
*863 _0374_
*864 _0375_
*865 _0376_
*866 _0377_
*867 _0378_
*868 _0379_
*869 _0380_
*870 _0381_
*871 _0382_
*872 _0383_
*873 _0384_
*874 _0385_
*875 _0386_
*876 _0387_
*877 _0388_
*878 _0389_
*879 _0390_
*880 _0391_
*881 _0392_
*882 _0393_
*883 _0394_
*884 _0395_
*885 _0396_
*886 _0397_
*887 _0398_
*888 _0399_
*889 _0400_
*890 _0401_
*891 _0402_
*892 _0403_
*893 _0404_
*894 _0405_
*895 _0406_
*896 _0407_
*897 _0408_
*898 _0409_
*899 _0410_
*900 _0411_
*901 _0412_
*902 _0413_
*903 _0414_
*904 _0415_
*905 _0416_
*906 _0417_
*907 _0418_
*908 _0419_
*909 _0420_
*910 _0421_
*911 _0422_
*912 _0423_
*913 _0424_
*914 _0425_
*915 _0426_
*916 _0427_
*917 _0428_
*918 _0429_
*919 _0430_
*920 _0431_
*921 _0432_
*922 _0433_
*923 _0434_
*924 _0435_
*925 _0436_
*926 _0437_
*927 _0438_
*928 _0439_
*929 _0440_
*930 _0441_
*931 _0442_
*932 _0443_
*933 _0444_
*934 _0445_
*935 _0446_
*936 _0447_
*937 _0448_
*938 _0449_
*939 _0450_
*940 _0451_
*941 _0452_
*942 _0453_
*943 _0454_
*944 _0455_
*945 _0456_
*946 _0457_
*947 _0458_
*948 _0459_
*949 _0460_
*950 _0461_
*951 _0462_
*952 _0463_
*953 _0464_
*954 _0465_
*955 _0466_
*956 _0467_
*957 _0468_
*958 _0469_
*959 _0470_
*960 _0471_
*961 _0472_
*962 _0473_
*963 _0474_
*964 _0475_
*965 _0476_
*966 _0477_
*967 _0478_
*968 _0479_
*969 _0480_
*970 _0481_
*971 _0482_
*972 _0483_
*973 _0484_
*974 _0485_
*975 _0486_
*976 _0487_
*977 _0488_
*978 _0489_
*979 _0490_
*980 _0491_
*981 _0492_
*982 _0493_
*983 _0494_
*984 _0495_
*985 _0496_
*986 _0497_
*987 _0498_
*988 _0499_
*989 _0500_
*990 _0501_
*991 _0502_
*992 _0503_
*993 _0504_
*994 _0505_
*995 _0506_
*996 _0507_
*997 _0508_
*998 _0509_
*999 _0510_
*1000 _0511_
*1001 _0512_
*1002 _0513_
*1003 _0514_
*1004 _0515_
*1005 _0516_
*1006 _0517_
*1007 _0518_
*1008 _0519_
*1009 _0520_
*1010 _0521_
*1011 _0522_
*1012 _0523_
*1013 _0524_
*1014 _0525_
*1015 _0526_
*1016 _0527_
*1017 _0528_
*1018 _0529_
*1019 _0530_
*1020 _0531_
*1021 _0532_
*1022 _0533_
*1023 _0534_
*1024 _0535_
*1025 _0536_
*1026 _0537_
*1027 _0538_
*1028 _0539_
*1029 _0540_
*1030 _0541_
*1031 _0542_
*1032 _0543_
*1033 _0544_
*1034 _0545_
*1035 _0546_
*1036 _0547_
*1037 _0548_
*1038 _0549_
*1039 _0550_
*1040 _0551_
*1041 _0552_
*1042 _0553_
*1043 _0554_
*1044 _0555_
*1045 _0556_
*1046 _0557_
*1047 _0558_
*1048 _0559_
*1049 _0560_
*1050 _0561_
*1051 _0562_
*1052 _0563_
*1053 _0564_
*1054 _0565_
*1055 _0566_
*1056 _0567_
*1057 _0568_
*1058 _0569_
*1059 _0570_
*1060 _0571_
*1061 _0572_
*1062 _0573_
*1063 _0574_
*1064 _0575_
*1065 _0576_
*1066 _0577_
*1067 _0578_
*1068 _0579_
*1069 _0580_
*1070 _0581_
*1071 _0582_
*1072 _0583_
*1073 _0584_
*1074 _0585_
*1075 _0586_
*1076 _0587_
*1077 _0588_
*1078 _0589_
*1079 _0590_
*1080 _0591_
*1081 _0592_
*1082 _0593_
*1083 _0594_
*1084 _0595_
*1085 _0596_
*1086 _0597_
*1087 _0598_
*1088 _0599_
*1089 _0600_
*1090 _0601_
*1091 _0602_
*1092 _0603_
*1093 _0604_
*1094 _0605_
*1095 _0606_
*1096 _0607_
*1097 _0608_
*1098 _0609_
*1099 _0610_
*1100 _0611_
*1101 _0612_
*1102 _0613_
*1103 _0614_
*1104 _0615_
*1105 _0616_
*1106 _0617_
*1107 _0618_
*1108 _0619_
*1109 _0620_
*1110 _0621_
*1111 _0622_
*1112 _0623_
*1113 _0624_
*1114 _0625_
*1115 _0626_
*1116 _0627_
*1117 _0628_
*1118 _0629_
*1119 _0630_
*1120 _0631_
*1121 _0632_
*1122 _0633_
*1123 _0634_
*1124 _0635_
*1125 _0636_
*1126 _0637_
*1127 _0638_
*1128 _0639_
*1129 _0640_
*1130 _0641_
*1131 _0642_
*1132 _0643_
*1133 _0644_
*1134 _0645_
*1135 _0646_
*1136 _0647_
*1137 _0648_
*1138 _0649_
*1139 _0650_
*1140 _0651_
*1141 _0652_
*1142 _0653_
*1143 _0654_
*1144 _0655_
*1145 _0656_
*1146 _0657_
*1147 _0658_
*1148 _0659_
*1149 _0660_
*1150 _0661_
*1151 _0662_
*1152 _0663_
*1153 _0664_
*1154 _0665_
*1155 _0666_
*1156 _0667_
*1157 _0668_
*1158 _0669_
*1159 _0670_
*1160 _0671_
*1161 _0672_
*1162 _0673_
*1163 _0674_
*1164 _0675_
*1165 _0676_
*1166 _0677_
*1167 _0678_
*1168 _0679_
*1169 _0680_
*1170 _0681_
*1171 _0682_
*1172 _0683_
*1173 _0684_
*1174 _0685_
*1175 _0686_
*1176 _0687_
*1177 _0688_
*1178 _0689_
*1179 _0690_
*1180 _0691_
*1181 _0692_
*1182 _0693_
*1183 _0694_
*1184 _0695_
*1185 _0696_
*1186 _0697_
*1187 _0698_
*1188 _0699_
*1189 _0700_
*1190 _0701_
*1191 _0702_
*1192 _0703_
*1193 _0704_
*1194 _0705_
*1195 _0706_
*1196 _0707_
*1197 _0708_
*1198 _0709_
*1199 _0710_
*1200 _0711_
*1201 _0712_
*1202 _0713_
*1203 _0714_
*1204 _0715_
*1205 _0716_
*1206 _0717_
*1207 _0718_
*1208 _0719_
*1209 _0720_
*1210 _0721_
*1211 _0722_
*1212 _0723_
*1213 _0724_
*1214 _0725_
*1215 _0726_
*1216 _0727_
*1217 _0728_
*1218 _0729_
*1219 _0730_
*1220 _0731_
*1221 _0732_
*1222 _0733_
*1223 _0734_
*1224 _0735_
*1225 _0736_
*1226 _0737_
*1227 _0738_
*1228 _0739_
*1229 _0740_
*1230 _0741_
*1231 _0742_
*1232 _0743_
*1233 _0744_
*1234 _0745_
*1235 _0746_
*1236 _0747_
*1237 _0748_
*1238 _0749_
*1239 _0750_
*1240 _0751_
*1241 _0752_
*1242 _0753_
*1243 _0754_
*1244 _0755_
*1245 _0756_
*1246 _0757_
*1247 _0758_
*1248 _0759_
*1249 _0760_
*1250 _0761_
*1251 _0762_
*1252 _0763_
*1253 _0764_
*1254 _0765_
*1255 _0766_
*1256 _0767_
*1257 _0768_
*1258 _0769_
*1259 _0770_
*1260 _0771_
*1261 _0772_
*1262 _0773_
*1263 _0774_
*1264 _0775_
*1265 _0776_
*1266 _0777_
*1267 _0778_
*1268 _0779_
*1269 _0780_
*1270 _0781_
*1271 _0782_
*1272 _0783_
*1273 _0784_
*1274 _0785_
*1275 _0786_
*1276 _0787_
*1277 _0788_
*1278 _0789_
*1279 _0790_
*1280 _0791_
*1281 _0792_
*1282 _0793_
*1283 _0794_
*1284 _0795_
*1285 _0796_
*1286 _0797_
*1287 _0798_
*1288 _0799_
*1289 _0800_
*1290 _0801_
*1291 _0802_
*1292 _0803_
*1293 _0804_
*1294 _0805_
*1295 _0806_
*1296 _0807_
*1297 _0808_
*1298 _0809_
*1299 _0810_
*1300 _0811_
*1301 _0812_
*1302 _0813_
*1303 _0814_
*1304 _0815_
*1305 _0816_
*1306 _0817_
*1307 _0818_
*1308 _0819_
*1309 _0820_
*1310 _0821_
*1311 _0822_
*1312 _0823_
*1313 _0824_
*1314 _0825_
*1315 _0826_
*1316 _0827_
*1317 _0828_
*1318 _0829_
*1319 _0830_
*1320 _0831_
*1321 _0832_
*1322 _0833_
*1323 _0834_
*1324 _0835_
*1325 _0836_
*1326 _0837_
*1327 _0838_
*1328 _0839_
*1329 _0840_
*1330 _0841_
*1331 _0842_
*1332 _0843_
*1333 _0844_
*1334 _0845_
*1335 _0846_
*1336 _0847_
*1337 _0848_
*1338 _0849_
*1339 _0850_
*1340 _0851_
*1341 _0852_
*1342 _0853_
*1343 _0854_
*1344 _0855_
*1345 _0856_
*1346 _0857_
*1347 _0858_
*1348 _0859_
*1349 _0860_
*1350 _0861_
*1351 _0862_
*1352 _0863_
*1353 _0864_
*1354 _0865_
*1355 _0866_
*1356 _0867_
*1357 _0868_
*1358 _0869_
*1359 _0870_
*1360 _0871_
*1361 _0872_
*1362 _0873_
*1363 _0874_
*1364 _0875_
*1365 _0876_
*1366 _0877_
*1367 _0878_
*1368 _0879_
*1369 _0880_
*1370 _0881_
*1371 _0882_
*1372 _0883_
*1373 _0884_
*1374 _0885_
*1375 _0886_
*1376 _0887_
*1377 _0888_
*1378 _0889_
*1379 _0890_
*1380 _0891_
*1381 _0892_
*1382 _0893_
*1383 _0894_
*1384 _0895_
*1385 _0896_
*1386 _0897_
*1387 _0898_
*1388 _0899_
*1389 _0900_
*1390 _0901_
*1391 _0902_
*1392 _0903_
*1393 _0904_
*1394 _0905_
*1395 _0906_
*1396 _0907_
*1397 _0908_
*1398 _0909_
*1399 _0910_
*1400 _0911_
*1401 _0912_
*1402 _0913_
*1403 _0914_
*1404 _0915_
*1405 _0916_
*1406 _0917_
*1407 _0918_
*1408 _0919_
*1409 _0920_
*1410 _0921_
*1411 _0922_
*1412 _0923_
*1413 _0924_
*1414 _0925_
*1415 _0926_
*1416 _0927_
*1417 _0928_
*1418 _0929_
*1419 _0930_
*1420 _0931_
*1421 _0932_
*1422 _0933_
*1423 _0934_
*1424 _0935_
*1425 _0936_
*1426 _0937_
*1427 _0938_
*1428 _0939_
*1429 _0940_
*1430 _0941_
*1431 _0942_
*1432 _0943_
*1433 _0944_
*1434 _0945_
*1435 _0946_
*1436 _0947_
*1437 _0948_
*1438 _0949_
*1439 _0950_
*1440 _0951_
*1441 _0952_
*1442 _0953_
*1443 _0954_
*1444 _0955_
*1445 _0956_
*1446 _0957_
*1447 _0958_
*1448 _0959_
*1449 _0960_
*1450 _0961_
*1451 _0962_
*1452 _0963_
*1453 _0964_
*1454 _0965_
*1455 _0966_
*1456 _0967_
*1457 _0968_
*1458 _0969_
*1459 _0970_
*1460 _0971_
*1461 _0972_
*1462 _0973_
*1463 _0974_
*1464 _0975_
*1465 _0976_
*1466 _0977_
*1467 _0978_
*1468 _0979_
*1469 _0980_
*1470 _0981_
*1471 _0982_
*1472 _0983_
*1473 _0984_
*1474 _0985_
*1475 _0986_
*1476 _0987_
*1477 _0988_
*1478 _0989_
*1479 _0990_
*1480 _0991_
*1481 _0992_
*1482 _0993_
*1483 _0994_
*1484 _0995_
*1485 _0996_
*1486 _0997_
*1487 _0998_
*1488 _0999_
*1489 _1000_
*1490 _1001_
*1491 _1002_
*1492 _1003_
*1493 _1004_
*1494 _1005_
*1495 _1006_
*1496 _1007_
*1497 _1008_
*1498 _1009_
*1499 _1010_
*1500 _1011_
*1501 _1012_
*1502 _1013_
*1503 _1014_
*1504 _1015_
*1505 _1016_
*1506 _1017_
*1507 _1018_
*1508 _1019_
*1509 _1020_
*1510 _1021_
*1511 _1022_
*1512 _1023_
*1513 _1024_
*1514 _1025_
*1515 _1026_
*1516 _1027_
*1517 _1028_
*1518 _1029_
*1519 _1030_
*1520 _1031_
*1521 _1032_
*1522 _1033_
*1523 _1034_
*1524 _1035_
*1525 _1036_
*1526 _1037_
*1527 _1038_
*1528 _1039_
*1529 _1040_
*1530 _1041_
*1531 _1042_
*1532 _1043_
*1533 _1044_
*1534 _1045_
*1535 _1046_
*1536 _1047_
*1537 _1048_
*1538 _1049_
*1539 _1050_
*1540 _1051_
*1541 _1052_
*1542 _1053_
*1543 _1054_
*1544 _1055_
*1545 _1056_
*1546 _1057_
*1547 _1058_
*1548 _1059_
*1549 _1060_
*1550 _1061_
*1551 _1062_
*1552 _1063_
*1553 _1064_
*1554 _1065_
*1555 _1066_
*1556 _1067_
*1557 _1068_
*1558 _1069_
*1559 _1070_
*1560 _1071_
*1561 _1072_
*1562 _1073_
*1563 _1074_
*1564 _1075_
*1565 _1076_
*1566 _1077_
*1567 _1078_
*1568 _1079_
*1569 _1080_
*1570 _1081_
*1571 _1082_
*1572 _1083_
*1573 _1084_
*1574 _1085_
*1575 _1086_
*1576 _1087_
*1577 _1088_
*1578 _1089_
*1579 _1090_
*1580 _1091_
*1581 _1092_
*1582 _1093_
*1583 _1094_
*1584 _1095_
*1585 _1096_
*1586 _1097_
*1587 _1098_
*1588 _1099_
*1589 _1100_
*1590 _1101_
*1591 _1102_
*1592 _1103_
*1593 _1104_
*1594 _1105_
*1595 _1106_
*1596 _1107_
*1597 _1108_
*1598 _1109_
*1599 _1110_
*1600 _1111_
*1601 _1112_
*1602 _1113_
*1603 _1114_
*1604 _1115_
*1605 _1116_
*1606 _1117_
*1607 _1118_
*1608 _1119_
*1609 _1120_
*1610 _1121_
*1611 _1122_
*1612 _1123_
*1613 _1124_
*1614 _1125_
*1615 _1126_
*1616 _1127_
*1617 _1128_
*1618 _1129_
*1619 _1130_
*1620 _1131_
*1621 _1132_
*1622 _1133_
*1623 _1134_
*1624 _1135_
*1625 _1136_
*1626 _1137_
*1627 _1138_
*1628 _1139_
*1629 _1140_
*1630 _1141_
*1631 _1142_
*1632 _1143_
*1633 _1144_
*1634 _1145_
*1635 _1146_
*1636 _1147_
*1637 _1148_
*1638 _1149_
*1639 _1150_
*1640 _1151_
*1641 _1152_
*1642 _1153_
*1643 _1154_
*1644 _1155_
*1645 _1156_
*1646 _1157_
*1647 _1158_
*1648 _1159_
*1649 _1160_
*1650 _1161_
*1651 _1162_
*1652 _1163_
*1653 _1164_
*1654 _1165_
*1655 _1166_
*1656 _1167_
*1657 _1168_
*1658 _1169_
*1659 _1170_
*1660 _1171_
*1661 _1172_
*1662 _1173_
*1663 _1174_
*1664 _1175_
*1665 _1176_
*1666 _1177_
*1667 _1178_
*1668 _1179_
*1669 _1180_
*1670 _1181_
*1671 _1182_
*1672 _1183_
*1673 _1184_
*1674 _1185_
*1675 _1186_
*1676 _1187_
*1677 _1188_
*1678 _1189_
*1679 _1190_
*1680 _1191_
*1681 _1192_
*1682 _1193_
*1683 _1194_
*1684 _1195_
*1685 _1196_
*1686 _1197_
*1687 _1198_
*1688 _1199_
*1689 _1200_
*1690 _1201_
*1691 _1202_
*1692 _1203_
*1693 _1204_
*1694 _1205_
*1695 _1206_
*1696 _1207_
*1697 _1208_
*1698 _1209_
*1699 _1210_
*1700 _1211_
*1701 _1212_
*1702 _1213_
*1703 _1214_
*1704 _1215_
*1705 _1216_
*1706 _1217_
*1707 _1218_
*1708 _1219_
*1709 _1220_
*1710 _1221_
*1711 _1222_
*1712 _1223_
*1713 _1224_
*1714 _1225_
*1715 _1226_
*1716 _1227_
*1717 _1228_
*1718 _1229_
*1719 _1230_
*1720 _1231_
*1721 _1232_
*1722 _1233_
*1723 _1234_
*1724 _1235_
*1725 _1236_
*1726 _1237_
*1727 _1238_
*1728 _1239_
*1729 _1240_
*1730 _1241_
*1731 _1242_
*1732 _1243_
*1733 _1244_
*1734 _1245_
*1735 _1246_
*1736 _1247_
*1737 _1248_
*1738 _1249_
*1739 _1250_
*1740 _1251_
*1741 _1252_
*1742 _1253_
*1743 _1254_
*1744 _1255_
*1745 _1256_
*1746 _1257_
*1747 _1258_
*1748 _1259_
*1749 _1260_
*1750 _1261_
*1751 _1262_
*1752 _1263_
*1753 _1264_
*1754 _1265_
*1755 _1266_
*1756 _1267_
*1757 _1268_
*1758 _1269_
*1759 _1270_
*1760 _1271_
*1761 _1272_
*1762 _1273_
*1763 _1274_
*1764 _1275_
*1765 _1276_
*1766 _1277_
*1767 _1278_
*1768 _1279_
*1769 _1280_
*1770 _1281_
*1771 _1282_
*1772 _1283_
*1773 _1284_
*1774 _1285_
*1775 _1286_
*1776 _1287_
*1777 _1288_
*1778 _1289_
*1779 _1290_
*1780 _1291_
*1781 _1292_
*1782 _1293_
*1783 _1294_
*1784 _1295_
*1785 _1296_
*1786 _1297_
*1787 _1298_
*1788 _1299_
*1789 _1300_
*1790 _1301_
*1791 _1302_
*1792 _1303_
*1793 _1304_
*1794 _1305_
*1795 _1306_
*1796 _1307_
*1797 _1308_
*1798 _1309_
*1799 _1310_
*1800 _1311_
*1801 _1312_
*1802 _1313_
*1803 _1314_
*1804 _1315_
*1805 _1316_
*1806 _1317_
*1807 _1318_
*1808 _1319_
*1809 _1320_
*1810 _1321_
*1811 _1322_
*1812 _1323_
*1813 _1324_
*1814 _1325_
*1815 _1326_
*1816 _1327_
*1817 _1328_
*1818 _1329_
*1819 _1330_
*1820 _1331_
*1821 _1332_
*1822 _1333_
*1823 _1334_
*1824 _1335_
*1825 _1336_
*1826 _1337_
*1827 _1338_
*1828 _1339_
*1829 _1340_
*1830 _1341_
*1831 _1342_
*1832 _1343_
*1833 _1344_
*1834 _1345_
*1835 _1346_
*1836 _1347_
*1837 _1348_
*1838 _1349_
*1839 _1350_
*1840 _1351_
*1841 _1352_
*1842 _1353_
*1843 _1354_
*1844 _1355_
*1845 _1356_
*1846 _1357_
*1847 _1358_
*1848 _1359_
*1849 _1360_
*1850 _1361_
*1851 _1362_
*1852 _1363_
*1853 _1364_
*1854 _1365_
*1855 _1366_
*1856 _1367_
*1857 _1368_
*1858 _1369_
*1859 _1370_
*1860 _1371_
*1861 _1372_
*1862 _1373_
*1863 _1374_
*1864 _1375_
*1865 _1376_
*1866 _1377_
*1867 _1378_
*1868 _1379_
*1869 _1380_
*1870 _1381_
*1871 _1382_
*1872 _1383_
*1873 _1384_
*1874 _1385_
*1875 _1386_
*1876 _1387_
*1877 _1388_
*1878 _1389_
*1879 _1390_
*1880 _1391_
*1881 _1392_
*1882 _1393_
*1883 _1394_
*1884 _1395_
*1885 _1396_
*1886 _1397_
*1887 _1398_
*1888 _1399_
*1889 _1400_
*1890 _1401_
*1891 _1402_
*1892 _1403_
*1893 _1404_
*1894 _1405_
*1895 _1406_
*1896 _1407_
*1897 _1408_
*1898 _1409_
*1899 _1410_
*1900 _1411_
*1901 _1412_
*1902 _1413_
*1903 _1414_
*1904 _1415_
*1905 _1416_
*1906 _1417_
*1907 _1418_
*1908 _1419_
*1909 _1420_
*1910 _1421_
*1911 _1422_
*1912 _1423_
*1913 _1424_
*1914 _1425_
*1915 _1426_
*1916 _1427_
*1917 _1428_
*1918 _1429_
*1919 _1430_
*1920 _1431_
*1921 _1432_
*1922 _1433_
*1923 _1434_
*1924 _1435_
*1925 _1436_
*1926 _1437_
*1927 _1438_
*1928 _1439_
*1929 _1440_
*1930 _1441_
*1931 _1442_
*1932 _1443_
*1933 _1444_
*1934 _1445_
*1935 _1446_
*1936 _1447_
*1937 _1448_
*1938 _1449_
*1939 _1450_
*1940 _1451_
*1941 _1452_
*1942 _1453_
*1943 _1454_
*1944 _1455_
*1945 _1456_
*1946 _1457_
*1947 _1458_
*1948 _1459_
*1949 _1460_
*1950 _1461_
*1951 _1462_
*1952 _1463_
*1953 _1464_
*1954 _1465_
*1955 _1466_
*1956 _1467_
*1957 _1468_
*1958 _1469_
*1959 _1470_
*1960 _1471_
*1961 _1472_
*1962 _1473_
*1963 _1474_
*1964 _1475_
*1965 _1476_
*1966 _1477_
*1967 _1478_
*1968 _1479_
*1969 _1480_
*1970 _1481_
*1971 _1482_
*1972 _1483_
*1973 _1484_
*1974 _1485_
*1975 _1486_
*1976 _1487_
*1977 _1488_
*1978 _1489_
*1979 _1490_
*1980 _1491_
*1981 _1492_
*1982 _1493_
*1983 _1494_
*1984 _1495_
*1985 _1496_
*1986 _1497_
*1987 _1498_
*1988 _1499_
*1989 _1500_
*1990 _1501_
*1991 _1502_
*1992 _1503_
*1993 _1504_
*1994 _1505_
*1995 _1506_
*1996 _1507_
*1997 _1508_
*1998 _1509_
*1999 _1510_
*2000 _1511_
*2001 _1512_
*2002 _1513_
*2003 _1514_
*2004 _1515_
*2005 _1516_
*2006 _1517_
*2007 _1518_
*2008 _1519_
*2009 _1520_
*2010 _1521_
*2011 _1522_
*2012 _1523_
*2013 _1524_
*2014 _1525_
*2015 _1526_
*2016 _1527_
*2017 _1528_
*2018 _1529_
*2019 _1530_
*2020 _1531_
*2021 _1532_
*2022 _1533_
*2023 _1534_
*2024 _1535_
*2025 _1536_
*2026 _1537_
*2027 clknet_0_wb_clk_i
*2028 clknet_2_0__leaf_wb_clk_i
*2029 clknet_2_1__leaf_wb_clk_i
*2030 clknet_2_2__leaf_wb_clk_i
*2031 clknet_2_3__leaf_wb_clk_i
*2032 clknet_leaf_0_wb_clk_i
*2033 clknet_leaf_10_wb_clk_i
*2034 clknet_leaf_11_wb_clk_i
*2035 clknet_leaf_12_wb_clk_i
*2036 clknet_leaf_13_wb_clk_i
*2037 clknet_leaf_14_wb_clk_i
*2038 clknet_leaf_15_wb_clk_i
*2039 clknet_leaf_16_wb_clk_i
*2040 clknet_leaf_17_wb_clk_i
*2041 clknet_leaf_18_wb_clk_i
*2042 clknet_leaf_19_wb_clk_i
*2043 clknet_leaf_1_wb_clk_i
*2044 clknet_leaf_20_wb_clk_i
*2045 clknet_leaf_21_wb_clk_i
*2046 clknet_leaf_22_wb_clk_i
*2047 clknet_leaf_23_wb_clk_i
*2048 clknet_leaf_24_wb_clk_i
*2049 clknet_leaf_26_wb_clk_i