*SPEF "ieee 1481-1999"
*DESIGN "WBPeripheralBusInterface"
*DATE "11:11:11 Fri 11 11, 1111"
*VENDOR "OpenRCX"
*PROGRAM "Parallel Extraction"
*VERSION "1.0"
*DESIGN_FLOW "NAME_SCOPE LOCAL" "PIN_CAP NONE"
*DIVIDER /
*DELIMITER :
*BUS_DELIMITER []
*T_UNIT 1 NS
*C_UNIT 1 PF
*R_UNIT 1 OHM
*L_UNIT 1 HENRY

*NAME_MAP
*1 peripheralBus_address[0]
*2 peripheralBus_address[10]
*3 peripheralBus_address[11]
*4 peripheralBus_address[12]
*5 peripheralBus_address[13]
*6 peripheralBus_address[14]
*7 peripheralBus_address[15]
*8 peripheralBus_address[16]
*9 peripheralBus_address[17]
*10 peripheralBus_address[18]
*11 peripheralBus_address[19]
*12 peripheralBus_address[1]
*13 peripheralBus_address[20]
*14 peripheralBus_address[21]
*15 peripheralBus_address[22]
*16 peripheralBus_address[23]
*17 peripheralBus_address[2]
*18 peripheralBus_address[3]
*19 peripheralBus_address[4]
*20 peripheralBus_address[5]
*21 peripheralBus_address[6]
*22 peripheralBus_address[7]
*23 peripheralBus_address[8]
*24 peripheralBus_address[9]
*25 peripheralBus_busy
*26 peripheralBus_byteSelect[0]
*27 peripheralBus_byteSelect[1]
*28 peripheralBus_byteSelect[2]
*29 peripheralBus_byteSelect[3]
*30 peripheralBus_dataRead[0]
*31 peripheralBus_dataRead[10]
*32 peripheralBus_dataRead[11]
*33 peripheralBus_dataRead[12]
*34 peripheralBus_dataRead[13]
*35 peripheralBus_dataRead[14]
*36 peripheralBus_dataRead[15]
*37 peripheralBus_dataRead[16]
*38 peripheralBus_dataRead[17]
*39 peripheralBus_dataRead[18]
*40 peripheralBus_dataRead[19]
*41 peripheralBus_dataRead[1]
*42 peripheralBus_dataRead[20]
*43 peripheralBus_dataRead[21]
*44 peripheralBus_dataRead[22]
*45 peripheralBus_dataRead[23]
*46 peripheralBus_dataRead[24]
*47 peripheralBus_dataRead[25]
*48 peripheralBus_dataRead[26]
*49 peripheralBus_dataRead[27]
*50 peripheralBus_dataRead[28]
*51 peripheralBus_dataRead[29]
*52 peripheralBus_dataRead[2]
*53 peripheralBus_dataRead[30]
*54 peripheralBus_dataRead[31]
*55 peripheralBus_dataRead[3]
*56 peripheralBus_dataRead[4]
*57 peripheralBus_dataRead[5]
*58 peripheralBus_dataRead[6]
*59 peripheralBus_dataRead[7]
*60 peripheralBus_dataRead[8]
*61 peripheralBus_dataRead[9]
*62 peripheralBus_dataWrite[0]
*63 peripheralBus_dataWrite[10]
*64 peripheralBus_dataWrite[11]
*65 peripheralBus_dataWrite[12]
*66 peripheralBus_dataWrite[13]
*67 peripheralBus_dataWrite[14]
*68 peripheralBus_dataWrite[15]
*69 peripheralBus_dataWrite[16]
*70 peripheralBus_dataWrite[17]
*71 peripheralBus_dataWrite[18]
*72 peripheralBus_dataWrite[19]
*73 peripheralBus_dataWrite[1]
*74 peripheralBus_dataWrite[20]
*75 peripheralBus_dataWrite[21]
*76 peripheralBus_dataWrite[22]
*77 peripheralBus_dataWrite[23]
*78 peripheralBus_dataWrite[24]
*79 peripheralBus_dataWrite[25]
*80 peripheralBus_dataWrite[26]
*81 peripheralBus_dataWrite[27]
*82 peripheralBus_dataWrite[28]
*83 peripheralBus_dataWrite[29]
*84 peripheralBus_dataWrite[2]
*85 peripheralBus_dataWrite[30]
*86 peripheralBus_dataWrite[31]
*87 peripheralBus_dataWrite[3]
*88 peripheralBus_dataWrite[4]
*89 peripheralBus_dataWrite[5]
*90 peripheralBus_dataWrite[6]
*91 peripheralBus_dataWrite[7]
*92 peripheralBus_dataWrite[8]
*93 peripheralBus_dataWrite[9]
*94 peripheralBus_oe
*95 peripheralBus_we
*98 wb_ack_o
*99 wb_adr_i[0]
*100 wb_adr_i[10]
*101 wb_adr_i[11]
*102 wb_adr_i[12]
*103 wb_adr_i[13]
*104 wb_adr_i[14]
*105 wb_adr_i[15]
*106 wb_adr_i[16]
*107 wb_adr_i[17]
*108 wb_adr_i[18]
*109 wb_adr_i[19]
*110 wb_adr_i[1]
*111 wb_adr_i[20]
*112 wb_adr_i[21]
*113 wb_adr_i[22]
*114 wb_adr_i[23]
*115 wb_adr_i[2]
*116 wb_adr_i[3]
*117 wb_adr_i[4]
*118 wb_adr_i[5]
*119 wb_adr_i[6]
*120 wb_adr_i[7]
*121 wb_adr_i[8]
*122 wb_adr_i[9]
*123 wb_clk_i
*124 wb_cyc_i
*125 wb_data_i[0]
*126 wb_data_i[10]
*127 wb_data_i[11]
*128 wb_data_i[12]
*129 wb_data_i[13]
*130 wb_data_i[14]
*131 wb_data_i[15]
*132 wb_data_i[16]
*133 wb_data_i[17]
*134 wb_data_i[18]
*135 wb_data_i[19]
*136 wb_data_i[1]
*137 wb_data_i[20]
*138 wb_data_i[21]
*139 wb_data_i[22]
*140 wb_data_i[23]
*141 wb_data_i[24]
*142 wb_data_i[25]
*143 wb_data_i[26]
*144 wb_data_i[27]
*145 wb_data_i[28]
*146 wb_data_i[29]
*147 wb_data_i[2]
*148 wb_data_i[30]
*149 wb_data_i[31]
*150 wb_data_i[3]
*151 wb_data_i[4]
*152 wb_data_i[5]
*153 wb_data_i[6]
*154 wb_data_i[7]
*155 wb_data_i[8]
*156 wb_data_i[9]
*157 wb_data_o[0]
*158 wb_data_o[10]
*159 wb_data_o[11]
*160 wb_data_o[12]
*161 wb_data_o[13]
*162 wb_data_o[14]
*163 wb_data_o[15]
*164 wb_data_o[16]
*165 wb_data_o[17]
*166 wb_data_o[18]
*167 wb_data_o[19]
*168 wb_data_o[1]
*169 wb_data_o[20]
*170 wb_data_o[21]
*171 wb_data_o[22]
*172 wb_data_o[23]
*173 wb_data_o[24]
*174 wb_data_o[25]
*175 wb_data_o[26]
*176 wb_data_o[27]
*177 wb_data_o[28]
*178 wb_data_o[29]
*179 wb_data_o[2]
*180 wb_data_o[30]
*181 wb_data_o[31]
*182 wb_data_o[3]
*183 wb_data_o[4]
*184 wb_data_o[5]
*185 wb_data_o[6]
*186 wb_data_o[7]
*187 wb_data_o[8]
*188 wb_data_o[9]
*189 wb_rst_i
*190 wb_sel_i[0]
*191 wb_sel_i[1]
*192 wb_sel_i[2]
*193 wb_sel_i[3]
*194 wb_stall_o
*195 wb_stb_i
*196 wb_we_i
*197 _000_
*198 _001_
*199 _002_
*200 _003_
*201 _004_
*202 _005_
*203 _006_
*204 _007_
*205 _008_
*206 _009_
*207 _010_
*208 _011_
*209 _012_
*210 _013_
*211 _014_
*212 _015_
*213 _016_
*214 _017_
*215 _018_
*216 _019_
*217 _020_
*218 _021_
*219 _022_
*220 _023_
*221 _024_
*222 _025_
*223 _026_
*224 _027_
*225 _028_
*226 _029_
*227 _030_
*228 _031_
*229 _032_
*230 _033_
*231 _034_
*232 _035_
*233 _036_
*234 _037_
*235 _038_
*236 _039_
*237 _040_
*238 _041_
*239 _042_
*240 _043_
*241 _044_
*242 _045_
*243 _046_
*244 _047_
*245 _048_
*246 _049_
*247 _050_
*248 _051_
*249 _052_
*250 _053_
*251 _054_
*252 _055_
*253 _056_
*254 _057_
*255 _058_
*256 _059_
*257 _060_
*258 _061_
*259 _062_
*260 _063_
*261 _064_
*262 _065_
*263 _066_
*264 _067_
*265 _068_
*266 _069_
*267 _070_
*268 _071_
*269 _072_
*270 _073_
*271 _074_
*272 _075_
*273 _076_
*274 _077_
*275 _078_
*276 _079_
*277 _080_
*278 _081_
*279 _082_
*280 _083_
*281 _084_
*282 _085_
*283 _086_
*284 _087_
*285 _088_
*286 _089_
*287 _090_
*288 _091_
*289 _092_
*290 _093_
*291 _094_
*292 _095_
*293 _096_
*294 _097_
*295 _098_
*296 _099_
*297 _100_
*298 _101_
*299 _102_
*300 _103_
*301 _104_
*302 _105_
*303 _106_
*304 _107_
*305 _108_
*306 _109_
*307 _110_
*308 _111_
*309 _112_
*310 _113_
*311 _114_
*312 _115_
*313 _116_
*314 _117_
*315 _118_
*316 _119_
*317 _120_
*318 _121_
*319 _122_
*320 _123_
*321 _124_
*322 _125_
*323 _126_
*324 _127_
*325 _128_
*326 _129_
*327 _130_
*328 _131_
*329 _132_
*330 _133_
*331 _134_
*332 _135_
*333 _136_
*334 _137_
*335 _138_
*336 _139_
*337 _140_
*338 _141_
*339 _142_
*340 _143_
*341 _144_
*342 _145_
*343 _146_
*344 _147_
*345 _148_
*346 _149_
*347 _150_
*348 _151_
*349 _152_
*350 _153_
*351 _154_
*352 _155_
*353 _156_
*354 _157_
*355 _158_
*356 _159_
*357 _160_
*358 _161_
*359 _162_
*360 _163_
*361 _164_
*362 _165_
*363 _166_
*364 _167_
*365 _168_
*366 _169_
*367 _170_
*368 _171_
*369 _172_
*370 _173_
*371 _174_
*372 _175_
*373 _176_
*374 _177_
*375 _178_
*376 _179_
*377 _180_
*378 _181_
*379 _182_
*380 _183_
*381 _184_
*382 _185_
*383 _186_
*384 _187_
*385 _188_
*386 _189_
*387 clknet_0_wb_clk_i
*388 clknet_2_0__leaf_wb_clk_i
*389 clknet_2_1__leaf_wb_clk_i
*390 clknet_2_2__leaf_wb_clk_i
*391 clknet_2_3__leaf_wb_clk_i
*392 currentAddress\[0\]
*393 currentAddress\[10\]
*394 currentAddress\[11\]
*395 currentAddress\[12\]
*396 currentAddress\[13\]
*397 currentAddress\[14\]
*398 currentAddress\[15\]
*399 currentAddress\[16\]
*400 currentAddress\[17\]
*401 currentAddress\[18\]
*402 currentAddress\[19\]
*403 currentAddress\[1\]
*404 currentAddress\[20\]
*405 currentAddress\[21\]
*406 currentAddress\[22\]
*407 currentAddress\[23\]
*408 currentAddress\[2\]
*409 currentAddress\[3\]
*410 currentAddress\[4\]
*411 currentAddress\[5\]
*412 currentAddress\[6\]
*413 currentAddress\[7\]
*414 currentAddress\[8\]
*415 currentAddress\[9\]
*416 currentByteSelect\[0\]
*417 currentByteSelect\[1\]
*418 currentByteSelect\[2\]
*419 currentByteSelect\[3\]
*420 net1
*421 net10
*422 net100
*423 net101
*424 net102
*425 net103
*426 net104
*427 net105
*428 net106
*429 net107
*430 net108
*431 net109
*432 net11
*433 net110
*434 net111
*435 net112
*436 net113
*437 net114
*438 net115
*439 net116
*440 net117
*441 net118
*442 net119
*443 net12
*444 net120
*445 net121
*446 net122
*447 net123
*448 net124
*449 net125
*450 net126
*451 net127
*452 net128
*453 net129
*454 net13
*455 net130
*456 net131
*457 net132
*458 net133
*459 net134
*460 net135
*461 net136
*462 net137
*463 net138
*464 net139
*465 net14
*466 net140
*467 net141
*468 net142
*469 net143
*470 net144
*471 net145
*472 net146
*473 net147
*474 net148
*475 net149
*476 net15
*477 net150
*478 net151
*479 net152
*480 net153
*481 net154
*482 net155
*483 net156
*484 net157
*485 net158
*486 net159
*487 net16
*488 net160
*489 net161
*490 net162
*491 net163
*492 net164
*493 net165
*494 net166
*495 net167
*496 net168
*497 net169
*498 net17
*499 net170
*500 net171
*501 net172
*502 net173
*503 net174
*504 net175
*505 net176
*506 net177
*507 net178
*508 net179
*509 net18
*510 net180
*511 net181
*512 net182
*513 net183
*514 net184
*515 net185
*516 net186
*517 net187
*518 net188
*519 net189
*520 net19
*521 net190
*522 net191
*523 net192
*524 net193
*525 net2
*526 net20
*527 net21
*528 net22
*529 net23
*530 net24
*531 net25
*532 net26
*533 net27
*534 net28
*535 net29
*536 net3
*537 net30
*538 net31
*539 net32
*540 net33
*541 net34
*542 net35
*543 net36
*544 net37
*545 net38
*546 net39
*547 net4
*548 net40
*549 net41
*550 net42
*551 net43
*552 net44
*553 net45
*554 net46
*555 net47
*556 net48
*557 net49
*558 net5
*559 net50
*560 net51
*561 net52
*562 net53
*563 net54
*564 net55
*565 net56
*566 net57
*567 net58
*568 net59
*569 net6
*570 net60
*571 net61
*572 net62
*573 net63
*574 net64
*575 net65
*576 net66
*577 net67
*578 net68
*579 net69
*580 net7
*581 net70
*582 net71
*583 net72
*584 net73
*585 net74
*586 net75
*587 net76
*588 net77
*589 net78
*590 net79
*591 net8
*592 net80
*593 net81
*594 net82
*595 net83
*596 net84
*597 net85
*598 net86
*599 net87
*600 net88
*601 net89
*602 net9
*603 net90
*604 net91
*605 net92
*606 net93
*607 net94
*608 net95
*609 net96
*610 net97
*611 net98
*612 net99
*613 state\[0\]
*614 state\[1\]
*615 ANTENNA__190__A
*616 ANTENNA__191__A
*617 ANTENNA__192__A
*618 ANTENNA__194__A
*619 ANTENNA__196__A
*620 ANTENNA__198__A
*621 ANTENNA__200__A
*622 ANTENNA__202__A
*623 ANTENNA__205__A
*624 ANTENNA__207__A
*625 ANTENNA__209__A
*626 ANTENNA__211__A
*627 ANTENNA__215__A
*628 ANTENNA__226__A
*629 ANTENNA__229__A
*630 ANTENNA__231__A
*631 ANTENNA__237__A
*632 ANTENNA__238__B
*633 ANTENNA__240__B
*634 ANTENNA__242__B
*635 ANTENNA__244__B
*636 ANTENNA__246__B
*637 ANTENNA__250__A
*638 ANTENNA__252__A
*639 ANTENNA__254__B
*640 ANTENNA__256__A
*641 ANTENNA__258__A
*642 ANTENNA__260__A
*643 ANTENNA__262__A
*644 ANTENNA__264__A
*645 ANTENNA__266__A
*646 ANTENNA__277__A
*647 ANTENNA__288__A
*648 ANTENNA__299__A
*649 ANTENNA__309__A
*650 ANTENNA__310__A
*651 ANTENNA__314__A
*652 ANTENNA__316__A
*653 ANTENNA__318__A
*654 ANTENNA__320__A
*655 ANTENNA__321__B
*656 ANTENNA__323__B
*657 ANTENNA__325__B
*658 ANTENNA__327__A_N
*659 ANTENNA__329__A
*660 ANTENNA__330__A
*661 ANTENNA__332__A
*662 ANTENNA__334__A
*663 ANTENNA__336__A
*664 ANTENNA__339__A
*665 ANTENNA__340__A
*666 ANTENNA__342__A
*667 ANTENNA__344__A
*668 ANTENNA__346__A
*669 ANTENNA__348__A
*670 ANTENNA__350__A
*671 ANTENNA__351__A
*672 ANTENNA__353__A
*673 ANTENNA__355__A
*674 ANTENNA__357__A
*675 ANTENNA__359__A
*676 ANTENNA__361__A
*677 ANTENNA__362__A
*678 ANTENNA__364__A
*679 ANTENNA__366__A
*680 ANTENNA__368__A
*681 ANTENNA__370__A
*682 ANTENNA__372__A
*683 ANTENNA__373__A
*684 ANTENNA__375__A
*685 ANTENNA__377__A
*686 ANTENNA__379__A
*687 ANTENNA__381__A
*688 ANTENNA__383__A
*689 ANTENNA__384__A
*690 ANTENNA__386__A
*691 ANTENNA__388__A
*692 ANTENNA__390__A
*693 ANTENNA__392__A
*694 ANTENNA__394__A
*695 ANTENNA__394__B
*696 ANTENNA__396__A
*697 ANTENNA__396__B
*698 ANTENNA__398__A
*699 ANTENNA__398__B
*700 ANTENNA__401__A
*701 ANTENNA__401__B
*702 ANTENNA__401__C
*703 ANTENNA__403__A1
*704 ANTENNA__408__A
*705 ANTENNA__409__A0
*706 ANTENNA__409__S
*707 ANTENNA__411__A0
*708 ANTENNA__411__S
*709 ANTENNA__414__B
*710 ANTENNA__415__A1
*711 ANTENNA__416__A
*712 ANTENNA__418__A0
*713 ANTENNA__418__S
*714 ANTENNA__420__A0
*715 ANTENNA__420__S
*716 ANTENNA__422__A0
*717 ANTENNA__422__S
*718 ANTENNA__424__A
*719 ANTENNA__425__A0
*720 ANTENNA__427__A0
*721 ANTENNA__429__A0
*722 ANTENNA__431__A0
*723 ANTENNA__433__A0
*724 ANTENNA__435__A
*725 ANTENNA__436__A0
*726 ANTENNA__446__A
*727 ANTENNA__453__A0
*728 ANTENNA__455__A0
*729 ANTENNA__468__S
*730 ANTENNA__470__A1
*731 ANTENNA__470__A2
*732 ANTENNA__470__B1_N
*733 ANTENNA__472__A1
*734 ANTENNA__473__CLK
*735 ANTENNA__474__CLK
*736 ANTENNA__475__CLK
*737 ANTENNA__476__CLK
*738 ANTENNA__477__CLK
*739 ANTENNA__478__CLK
*740 ANTENNA__479__CLK
*741 ANTENNA__480__CLK
*742 ANTENNA__481__CLK
*743 ANTENNA__482__CLK
*744 ANTENNA__483__CLK
*745 ANTENNA__484__CLK
*746 ANTENNA__485__CLK
*747 ANTENNA__486__CLK
*748 ANTENNA__487__CLK
*749 ANTENNA__488__CLK
*750 ANTENNA__489__CLK
*751 ANTENNA__490__CLK
*752 ANTENNA__491__CLK
*753 ANTENNA__492__CLK
*754 ANTENNA__493__CLK
*755 ANTENNA__494__CLK
*756 ANTENNA__495__CLK
*757 ANTENNA__496__CLK
*758 ANTENNA__497__CLK
*759 ANTENNA__498__CLK
*760 ANTENNA__499__CLK
*761 ANTENNA__500__CLK
*762 ANTENNA__501__CLK
*763 ANTENNA__502__CLK
*764 ANTENNA__503__CLK
*765 ANTENNA__504__CLK
*766 ANTENNA_clkbuf_0_wb_clk_i_A
*767 ANTENNA_clkbuf_2_0__f_wb_clk_i_A
*768 ANTENNA_clkbuf_2_1__f_wb_clk_i_A
*769 ANTENNA_clkbuf_2_2__f_wb_clk_i_A
*770 ANTENNA_clkbuf_2_3__f_wb_clk_i_A
*771 ANTENNA_input10_A
*772 ANTENNA_input11_A
*773 ANTENNA_input12_A
*774 ANTENNA_input13_A
*775 ANTENNA_input14_A
*776 ANTENNA_input15_A
*777 ANTENNA_input16_A
*778 ANTENNA_input17_A
*779 ANTENNA_input18_A
*780 ANTENNA_input19_A
*781 ANTENNA_input1_A
*782 ANTENNA_input20_A
*783 ANTENNA_input21_A
*784 ANTENNA_input22_A
*785 ANTENNA_input23_A
*786 ANTENNA_input24_A
*787 ANTENNA_input25_A
*788 ANTENNA_input26_A
*789 ANTENNA_input27_A
*790 ANTENNA_input28_A
*791 ANTENNA_input29_A
*792 ANTENNA_input2_A
*793 ANTENNA_input30_A
*794 ANTENNA_input31_A
*795 ANTENNA_input32_A
*796 ANTENNA_input33_A
*797 ANTENNA_input34_A
*798 ANTENNA_input35_A
*799 ANTENNA_input36_A
*800 ANTENNA_input37_A
*801 ANTENNA_input38_A
*802 ANTENNA_input39_A
*803 ANTENNA_input3_A
*804 ANTENNA_input40_A
*805 ANTENNA_input41_A
*806 ANTENNA_input42_A
*807 ANTENNA_input43_A
*808 ANTENNA_input44_A
*809 ANTENNA_input45_A
*810 ANTENNA_input46_A
*811 ANTENNA_input47_A
*812 ANTENNA_input48_A
*813 ANTENNA_input49_A
*814 ANTENNA_input4_A
*815 ANTENNA_input50_A
*816 ANTENNA_input51_A
*817 ANTENNA_input52_A
*818 ANTENNA_input53_A
*819 ANTENNA_input54_A
*820 ANTENNA_input55_A
*821 ANTENNA_input56_A
*822 ANTENNA_input57_A
*823 ANTENNA_input58_A
*824 ANTENNA_input59_A
*825 ANTENNA_input5_A
*826 ANTENNA_input60_A
*827 ANTENNA_input61_A
*828 ANTENNA_input62_A
*829 ANTENNA_input63_A
*830 ANTENNA_input64_A
*831 ANTENNA_input65_A
*832 ANTENNA_input66_A
*833 ANTENNA_input67_A
*834 ANTENNA_input68_A
*835 ANTENNA_input69_A
*836 ANTENNA_input6_A
*837 ANTENNA_input70_A
*838 ANTENNA_input71_A
*839 ANTENNA_input72_A
*840 ANTENNA_input73_A
*841 ANTENNA_input74_A
*842 ANTENNA_input75_A
*843 ANTENNA_input76_A
*844 ANTENNA_input77_A
*845 ANTENNA_input78_A
*846 ANTENNA_input79_A
*847 ANTENNA_input7_A
*848 ANTENNA_input80_A
*849 ANTENNA_input81_A
*850 ANTENNA_input82_A
*851 ANTENNA_input83_A
*852 ANTENNA_input84_A
*853 ANTENNA_input85_A
*854 ANTENNA_input86_A
*855 ANTENNA_input87_A
*856 ANTENNA_input88_A
*857 ANTENNA_input89_A
*858 ANTENNA_input8_A
*859 ANTENNA_input90_A
*860 ANTENNA_input91_A
*861 ANTENNA_input92_A
*862 ANTENNA_input93_A
*863 ANTENNA_input94_A
*864 ANTENNA_input95_A
*865 ANTENNA_input96_A
*866 ANTENNA_input97_A
*867 ANTENNA_input9_A
*868 ANTENNA_output160_A
*869 ANTENNA_output162_A
*870 ANTENNA_output163_A
*871 ANTENNA_output164_A
*872 ANTENNA_output165_A
*873 ANTENNA_output166_A
*874 ANTENNA_output167_A
*875 ANTENNA_output168_A
*876 ANTENNA_output169_A
*877 ANTENNA_output170_A
*878 ANTENNA_output171_A
*879 ANTENNA_output173_A
*880 ANTENNA_output174_A
*881 ANTENNA_output175_A
*882 ANTENNA_output177_A
*883 ANTENNA_output187_A
*884 ANTENNA_output188_A
*885 ANTENNA_output189_A
*886 ANTENNA_output190_A
*887 ANTENNA_output191_A
*888 ANTENNA_output192_A
*889 FILLER_0_109
*890 FILLER_0_113
*891 FILLER_0_125
*892 FILLER_0_13
*893 FILLER_0_137
*894 FILLER_0_141
*895 FILLER_0_153
*896 FILLER_0_165
*897 FILLER_0_169
*898 FILLER_0_181
*899 FILLER_0_193
*900 FILLER_0_197
*901 FILLER_0_209
*902 FILLER_0_21
*903 FILLER_0_221
*904 FILLER_0_225
*905 FILLER_0_237
*906 FILLER_0_249
*907 FILLER_0_253
*908 FILLER_0_265
*909 FILLER_0_27
*910 FILLER_0_277
*911 FILLER_0_281
*912 FILLER_0_293
*913 FILLER_0_3
*914 FILLER_0_305
*915 FILLER_0_309
*916 FILLER_0_32
*917 FILLER_0_321
*918 FILLER_0_333
*919 FILLER_0_337
*920 FILLER_0_349
*921 FILLER_0_361
*922 FILLER_0_365
*923 FILLER_0_372
*924 FILLER_0_380
*925 FILLER_0_388
*926 FILLER_0_39
*927 FILLER_0_393
*928 FILLER_0_403
*929 FILLER_0_45
*930 FILLER_0_51
*931 FILLER_0_55
*932 FILLER_0_57
*933 FILLER_0_69
*934 FILLER_0_81
*935 FILLER_0_85
*936 FILLER_0_97
*937 FILLER_10_109
*938 FILLER_10_121
*939 FILLER_10_13
*940 FILLER_10_133
*941 FILLER_10_139
*942 FILLER_10_141
*943 FILLER_10_153
*944 FILLER_10_165
*945 FILLER_10_177
*946 FILLER_10_189
*947 FILLER_10_19
*948 FILLER_10_195
*949 FILLER_10_200
*950 FILLER_10_222
*951 FILLER_10_234
*952 FILLER_10_246
*953 FILLER_10_253
*954 FILLER_10_265
*955 FILLER_10_27
*956 FILLER_10_277
*957 FILLER_10_289
*958 FILLER_10_29
*959 FILLER_10_301
*960 FILLER_10_307
*961 FILLER_10_315
*962 FILLER_10_327
*963 FILLER_10_339
*964 FILLER_10_351
*965 FILLER_10_363
*966 FILLER_10_365
*967 FILLER_10_377
*968 FILLER_10_389
*969 FILLER_10_393
*970 FILLER_10_403
*971 FILLER_10_41
*972 FILLER_10_53
*973 FILLER_10_6
*974 FILLER_10_65
*975 FILLER_10_73
*976 FILLER_10_77
*977 FILLER_10_83
*978 FILLER_10_85
*979 FILLER_10_97
*980 FILLER_11_105
*981 FILLER_11_11
*982 FILLER_11_111
*983 FILLER_11_113
*984 FILLER_11_125
*985 FILLER_11_137
*986 FILLER_11_149
*987 FILLER_11_161
*988 FILLER_11_167
*989 FILLER_11_169
*990 FILLER_11_181
*991 FILLER_11_193
*992 FILLER_11_20
*993 FILLER_11_205
*994 FILLER_11_217
*995 FILLER_11_223
*996 FILLER_11_225
*997 FILLER_11_237
*998 FILLER_11_249
*999 FILLER_11_26
*1000 FILLER_11_261
*1001 FILLER_11_273
*1002 FILLER_11_276
*1003 FILLER_11_286
*1004 FILLER_11_298
*1005 FILLER_11_3
*1006 FILLER_11_310
*1007 FILLER_11_32
*1008 FILLER_11_322
*1009 FILLER_11_334
*1010 FILLER_11_337
*1011 FILLER_11_349
*1012 FILLER_11_357
*1013 FILLER_11_366
*1014 FILLER_11_378
*1015 FILLER_11_384
*1016 FILLER_11_388
*1017 FILLER_11_395
*1018 FILLER_11_403
*1019 FILLER_11_44
*1020 FILLER_11_57
*1021 FILLER_11_69
*1022 FILLER_11_81
*1023 FILLER_11_93
*1024 FILLER_12_109
*1025 FILLER_12_121
*1026 FILLER_12_133
*1027 FILLER_12_139
*1028 FILLER_12_141
*1029 FILLER_12_153
*1030 FILLER_12_165
*1031 FILLER_12_177
*1032 FILLER_12_189
*1033 FILLER_12_195
*1034 FILLER_12_197
*1035 FILLER_12_209
*1036 FILLER_12_221
*1037 FILLER_12_233
*1038 FILLER_12_24
*1039 FILLER_12_245
*1040 FILLER_12_251
*1041 FILLER_12_253
*1042 FILLER_12_265
*1043 FILLER_12_277
*1044 FILLER_12_289
*1045 FILLER_12_301
*1046 FILLER_12_307
*1047 FILLER_12_309
*1048 FILLER_12_321
*1049 FILLER_12_333
*1050 FILLER_12_341
*1051 FILLER_12_354
*1052 FILLER_12_362
*1053 FILLER_12_365
*1054 FILLER_12_377
*1055 FILLER_12_385
*1056 FILLER_12_389
*1057 FILLER_12_403
*1058 FILLER_12_46
*1059 FILLER_12_52
*1060 FILLER_12_64
*1061 FILLER_12_7
*1062 FILLER_12_76
*1063 FILLER_12_85
*1064 FILLER_12_97
*1065 FILLER_13_105
*1066 FILLER_13_111
*1067 FILLER_13_113
*1068 FILLER_13_125
*1069 FILLER_13_13
*1070 FILLER_13_137
*1071 FILLER_13_149
*1072 FILLER_13_161
*1073 FILLER_13_167
*1074 FILLER_13_169
*1075 FILLER_13_181
*1076 FILLER_13_19
*1077 FILLER_13_193
*1078 FILLER_13_205
*1079 FILLER_13_217
*1080 FILLER_13_223
*1081 FILLER_13_225
*1082 FILLER_13_237
*1083 FILLER_13_249
*1084 FILLER_13_255
*1085 FILLER_13_26
*1086 FILLER_13_267
*1087 FILLER_13_279
*1088 FILLER_13_283
*1089 FILLER_13_297
*1090 FILLER_13_309
*1091 FILLER_13_313
*1092 FILLER_13_325
*1093 FILLER_13_329
*1094 FILLER_13_332
*1095 FILLER_13_342
*1096 FILLER_13_350
*1097 FILLER_13_355
*1098 FILLER_13_364
*1099 FILLER_13_376
*1100 FILLER_13_38
*1101 FILLER_13_384
*1102 FILLER_13_388
*1103 FILLER_13_393
*1104 FILLER_13_403
*1105 FILLER_13_50
*1106 FILLER_13_57
*1107 FILLER_13_6
*1108 FILLER_13_69
*1109 FILLER_13_81
*1110 FILLER_13_93
*1111 FILLER_14_11
*1112 FILLER_14_111
*1113 FILLER_14_117
*1114 FILLER_14_130
*1115 FILLER_14_136
*1116 FILLER_14_141
*1117 FILLER_14_145
*1118 FILLER_14_165
*1119 FILLER_14_17
*1120 FILLER_14_173
*1121 FILLER_14_178
*1122 FILLER_14_191
*1123 FILLER_14_195
*1124 FILLER_14_197
*1125 FILLER_14_209
*1126 FILLER_14_221
*1127 FILLER_14_23
*1128 FILLER_14_233
*1129 FILLER_14_237
*1130 FILLER_14_242
*1131 FILLER_14_250
*1132 FILLER_14_253
*1133 FILLER_14_265
*1134 FILLER_14_27
*1135 FILLER_14_277
*1136 FILLER_14_29
*1137 FILLER_14_291
*1138 FILLER_14_3
*1139 FILLER_14_300
*1140 FILLER_14_309
*1141 FILLER_14_317
*1142 FILLER_14_329
*1143 FILLER_14_341
*1144 FILLER_14_353
*1145 FILLER_14_361
*1146 FILLER_14_365
*1147 FILLER_14_379
*1148 FILLER_14_386
*1149 FILLER_14_393
*1150 FILLER_14_403
*1151 FILLER_14_41
*1152 FILLER_14_53
*1153 FILLER_14_65
*1154 FILLER_14_77
*1155 FILLER_14_83
*1156 FILLER_14_87
*1157 FILLER_14_99
*1158 FILLER_15_111
*1159 FILLER_15_113
*1160 FILLER_15_121
*1161 FILLER_15_125
*1162 FILLER_15_13
*1163 FILLER_15_149
*1164 FILLER_15_155
*1165 FILLER_15_167
*1166 FILLER_15_169
*1167 FILLER_15_177
*1168 FILLER_15_180
*1169 FILLER_15_19
*1170 FILLER_15_200
*1171 FILLER_15_212
*1172 FILLER_15_225
*1173 FILLER_15_237
*1174 FILLER_15_249
*1175 FILLER_15_258
*1176 FILLER_15_270
*1177 FILLER_15_278
*1178 FILLER_15_281
*1179 FILLER_15_293
*1180 FILLER_15_305
*1181 FILLER_15_31
*1182 FILLER_15_317
*1183 FILLER_15_329
*1184 FILLER_15_335
*1185 FILLER_15_337
*1186 FILLER_15_349
*1187 FILLER_15_361
*1188 FILLER_15_373
*1189 FILLER_15_388
*1190 FILLER_15_393
*1191 FILLER_15_403
*1192 FILLER_15_43
*1193 FILLER_15_55
*1194 FILLER_15_57
*1195 FILLER_15_69
*1196 FILLER_15_7
*1197 FILLER_15_93
*1198 FILLER_15_99
*1199 FILLER_16_102
*1200 FILLER_16_11
*1201 FILLER_16_114
*1202 FILLER_16_126
*1203 FILLER_16_138
*1204 FILLER_16_141
*1205 FILLER_16_153
*1206 FILLER_16_165
*1207 FILLER_16_177
*1208 FILLER_16_18
*1209 FILLER_16_183
*1210 FILLER_16_187
*1211 FILLER_16_195
*1212 FILLER_16_197
*1213 FILLER_16_209
*1214 FILLER_16_217
*1215 FILLER_16_224
*1216 FILLER_16_230
*1217 FILLER_16_24
*1218 FILLER_16_246
*1219 FILLER_16_253
*1220 FILLER_16_265
*1221 FILLER_16_277
*1222 FILLER_16_29
*1223 FILLER_16_291
*1224 FILLER_16_3
*1225 FILLER_16_300
*1226 FILLER_16_309
*1227 FILLER_16_321
*1228 FILLER_16_333
*1229 FILLER_16_345
*1230 FILLER_16_357
*1231 FILLER_16_363
*1232 FILLER_16_368
*1233 FILLER_16_380
*1234 FILLER_16_388
*1235 FILLER_16_395
*1236 FILLER_16_403
*1237 FILLER_16_41
*1238 FILLER_16_53
*1239 FILLER_16_65
*1240 FILLER_16_73
*1241 FILLER_16_78
*1242 FILLER_17_109
*1243 FILLER_17_113
*1244 FILLER_17_125
*1245 FILLER_17_13
*1246 FILLER_17_137
*1247 FILLER_17_149
*1248 FILLER_17_157
*1249 FILLER_17_164
*1250 FILLER_17_169
*1251 FILLER_17_181
*1252 FILLER_17_19
*1253 FILLER_17_193
*1254 FILLER_17_205
*1255 FILLER_17_217
*1256 FILLER_17_223
*1257 FILLER_17_225
*1258 FILLER_17_237
*1259 FILLER_17_249
*1260 FILLER_17_25
*1261 FILLER_17_256
*1262 FILLER_17_268
*1263 FILLER_17_281
*1264 FILLER_17_293
*1265 FILLER_17_305
*1266 FILLER_17_317
*1267 FILLER_17_329
*1268 FILLER_17_335
*1269 FILLER_17_337
*1270 FILLER_17_341
*1271 FILLER_17_344
*1272 FILLER_17_356
*1273 FILLER_17_368
*1274 FILLER_17_37
*1275 FILLER_17_380
*1276 FILLER_17_384
*1277 FILLER_17_388
*1278 FILLER_17_393
*1279 FILLER_17_403
*1280 FILLER_17_49
*1281 FILLER_17_55
*1282 FILLER_17_57
*1283 FILLER_17_69
*1284 FILLER_17_7
*1285 FILLER_17_81
*1286 FILLER_17_85
*1287 FILLER_17_97
*1288 FILLER_18_109
*1289 FILLER_18_121
*1290 FILLER_18_133
*1291 FILLER_18_139
*1292 FILLER_18_14
*1293 FILLER_18_141
*1294 FILLER_18_145
*1295 FILLER_18_148
*1296 FILLER_18_160
*1297 FILLER_18_172
*1298 FILLER_18_184
*1299 FILLER_18_197
*1300 FILLER_18_20
*1301 FILLER_18_209
*1302 FILLER_18_221
*1303 FILLER_18_233
*1304 FILLER_18_237
*1305 FILLER_18_24
*1306 FILLER_18_242
*1307 FILLER_18_250
*1308 FILLER_18_253
*1309 FILLER_18_265
*1310 FILLER_18_277
*1311 FILLER_18_289
*1312 FILLER_18_292
*1313 FILLER_18_301
*1314 FILLER_18_307
*1315 FILLER_18_309
*1316 FILLER_18_314
*1317 FILLER_18_328
*1318 FILLER_18_336
*1319 FILLER_18_340
*1320 FILLER_18_349
*1321 FILLER_18_361
*1322 FILLER_18_365
*1323 FILLER_18_377
*1324 FILLER_18_38
*1325 FILLER_18_385
*1326 FILLER_18_389
*1327 FILLER_18_397
*1328 FILLER_18_403
*1329 FILLER_18_44
*1330 FILLER_18_56
*1331 FILLER_18_68
*1332 FILLER_18_7
*1333 FILLER_18_80
*1334 FILLER_18_85
*1335 FILLER_18_97
*1336 FILLER_19_105
*1337 FILLER_19_11
*1338 FILLER_19_111
*1339 FILLER_19_113
*1340 FILLER_19_125
*1341 FILLER_19_137
*1342 FILLER_19_141
*1343 FILLER_19_144
*1344 FILLER_19_156
*1345 FILLER_19_162
*1346 FILLER_19_169
*1347 FILLER_19_181
*1348 FILLER_19_193
*1349 FILLER_19_205
*1350 FILLER_19_217
*1351 FILLER_19_223
*1352 FILLER_19_225
*1353 FILLER_19_237
*1354 FILLER_19_249
*1355 FILLER_19_261
*1356 FILLER_19_273
*1357 FILLER_19_279
*1358 FILLER_19_281
*1359 FILLER_19_293
*1360 FILLER_19_3
*1361 FILLER_19_305
*1362 FILLER_19_317
*1363 FILLER_19_329
*1364 FILLER_19_335
*1365 FILLER_19_337
*1366 FILLER_19_342
*1367 FILLER_19_351
*1368 FILLER_19_36
*1369 FILLER_19_363
*1370 FILLER_19_375
*1371 FILLER_19_387
*1372 FILLER_19_391
*1373 FILLER_19_393
*1374 FILLER_19_403
*1375 FILLER_19_42
*1376 FILLER_19_54
*1377 FILLER_19_57
*1378 FILLER_19_69
*1379 FILLER_19_81
*1380 FILLER_19_93
*1381 FILLER_1_105
*1382 FILLER_1_108
*1383 FILLER_1_11
*1384 FILLER_1_113
*1385 FILLER_1_125
*1386 FILLER_1_137
*1387 FILLER_1_149
*1388 FILLER_1_161
*1389 FILLER_1_167
*1390 FILLER_1_169
*1391 FILLER_1_181
*1392 FILLER_1_19
*1393 FILLER_1_193
*1394 FILLER_1_205
*1395 FILLER_1_217
*1396 FILLER_1_223
*1397 FILLER_1_225
*1398 FILLER_1_237
*1399 FILLER_1_249
*1400 FILLER_1_26
*1401 FILLER_1_261
*1402 FILLER_1_273
*1403 FILLER_1_279
*1404 FILLER_1_281
*1405 FILLER_1_293
*1406 FILLER_1_3
*1407 FILLER_1_305
*1408 FILLER_1_317
*1409 FILLER_1_32
*1410 FILLER_1_329
*1411 FILLER_1_335
*1412 FILLER_1_337
*1413 FILLER_1_349
*1414 FILLER_1_361
*1415 FILLER_1_365
*1416 FILLER_1_368
*1417 FILLER_1_374
*1418 FILLER_1_38
*1419 FILLER_1_381
*1420 FILLER_1_388
*1421 FILLER_1_393
*1422 FILLER_1_403
*1423 FILLER_1_44
*1424 FILLER_1_57
*1425 FILLER_1_69
*1426 FILLER_1_81
*1427 FILLER_1_86
*1428 FILLER_1_94
*1429 FILLER_1_97
*1430 FILLER_20_109
*1431 FILLER_20_121
*1432 FILLER_20_133
*1433 FILLER_20_139
*1434 FILLER_20_14
*1435 FILLER_20_141
*1436 FILLER_20_153
*1437 FILLER_20_165
*1438 FILLER_20_177
*1439 FILLER_20_189
*1440 FILLER_20_195
*1441 FILLER_20_197
*1442 FILLER_20_20
*1443 FILLER_20_209
*1444 FILLER_20_221
*1445 FILLER_20_233
*1446 FILLER_20_245
*1447 FILLER_20_251
*1448 FILLER_20_253
*1449 FILLER_20_257
*1450 FILLER_20_263
*1451 FILLER_20_275
*1452 FILLER_20_287
*1453 FILLER_20_29
*1454 FILLER_20_291
*1455 FILLER_20_300
*1456 FILLER_20_309
*1457 FILLER_20_321
*1458 FILLER_20_333
*1459 FILLER_20_345
*1460 FILLER_20_357
*1461 FILLER_20_363
*1462 FILLER_20_365
*1463 FILLER_20_377
*1464 FILLER_20_383
*1465 FILLER_20_390
*1466 FILLER_20_398
*1467 FILLER_20_403
*1468 FILLER_20_41
*1469 FILLER_20_53
*1470 FILLER_20_65
*1471 FILLER_20_7
*1472 FILLER_20_77
*1473 FILLER_20_83
*1474 FILLER_20_85
*1475 FILLER_20_97
*1476 FILLER_21_102
*1477 FILLER_21_11
*1478 FILLER_21_110
*1479 FILLER_21_113
*1480 FILLER_21_125
*1481 FILLER_21_137
*1482 FILLER_21_149
*1483 FILLER_21_161
*1484 FILLER_21_167
*1485 FILLER_21_169
*1486 FILLER_21_17
*1487 FILLER_21_181
*1488 FILLER_21_193
*1489 FILLER_21_205
*1490 FILLER_21_217
*1491 FILLER_21_220
*1492 FILLER_21_23
*1493 FILLER_21_233
*1494 FILLER_21_239
*1495 FILLER_21_245
*1496 FILLER_21_255
*1497 FILLER_21_267
*1498 FILLER_21_279
*1499 FILLER_21_281
*1500 FILLER_21_289
*1501 FILLER_21_294
*1502 FILLER_21_3
*1503 FILLER_21_306
*1504 FILLER_21_318
*1505 FILLER_21_330
*1506 FILLER_21_337
*1507 FILLER_21_343
*1508 FILLER_21_35
*1509 FILLER_21_352
*1510 FILLER_21_364
*1511 FILLER_21_376
*1512 FILLER_21_384
*1513 FILLER_21_388
*1514 FILLER_21_396
*1515 FILLER_21_403
*1516 FILLER_21_47
*1517 FILLER_21_55
*1518 FILLER_21_57
*1519 FILLER_21_72
*1520 FILLER_21_78
*1521 FILLER_21_90
*1522 FILLER_22_109
*1523 FILLER_22_12
*1524 FILLER_22_124
*1525 FILLER_22_130
*1526 FILLER_22_138
*1527 FILLER_22_141
*1528 FILLER_22_153
*1529 FILLER_22_165
*1530 FILLER_22_177
*1531 FILLER_22_18
*1532 FILLER_22_185
*1533 FILLER_22_188
*1534 FILLER_22_197
*1535 FILLER_22_209
*1536 FILLER_22_221
*1537 FILLER_22_233
*1538 FILLER_22_245
*1539 FILLER_22_251
*1540 FILLER_22_258
*1541 FILLER_22_26
*1542 FILLER_22_270
*1543 FILLER_22_278
*1544 FILLER_22_285
*1545 FILLER_22_29
*1546 FILLER_22_293
*1547 FILLER_22_299
*1548 FILLER_22_307
*1549 FILLER_22_309
*1550 FILLER_22_313
*1551 FILLER_22_325
*1552 FILLER_22_337
*1553 FILLER_22_341
*1554 FILLER_22_344
*1555 FILLER_22_353
*1556 FILLER_22_361
*1557 FILLER_22_365
*1558 FILLER_22_377
*1559 FILLER_22_385
*1560 FILLER_22_388
*1561 FILLER_22_395
*1562 FILLER_22_403
*1563 FILLER_22_41
*1564 FILLER_22_53
*1565 FILLER_22_6
*1566 FILLER_22_65
*1567 FILLER_22_77
*1568 FILLER_22_83
*1569 FILLER_22_85
*1570 FILLER_22_97
*1571 FILLER_23_104
*1572 FILLER_23_108
*1573 FILLER_23_11
*1574 FILLER_23_113
*1575 FILLER_23_131
*1576 FILLER_23_143
*1577 FILLER_23_155
*1578 FILLER_23_167
*1579 FILLER_23_169
*1580 FILLER_23_17
*1581 FILLER_23_175
*1582 FILLER_23_179
*1583 FILLER_23_187
*1584 FILLER_23_204
*1585 FILLER_23_216
*1586 FILLER_23_225
*1587 FILLER_23_23
*1588 FILLER_23_237