*SPEF "ieee 1481-1999"
*DESIGN "WishboneInterconnect"
*DATE "11:11:11 Fri 11 11, 1111"
*VENDOR "OpenRCX"
*PROGRAM "Parallel Extraction"
*VERSION "1.0"
*DESIGN_FLOW "NAME_SCOPE LOCAL" "PIN_CAP NONE"
*DIVIDER /
*DELIMITER :
*BUS_DELIMITER []
*T_UNIT 1 NS
*C_UNIT 1 PF
*R_UNIT 1 OHM
*L_UNIT 1 HENRY

*NAME_MAP
*1 master0_wb_ack_i
*2 master0_wb_adr_o[0]
*3 master0_wb_adr_o[10]
*4 master0_wb_adr_o[11]
*5 master0_wb_adr_o[12]
*6 master0_wb_adr_o[13]
*7 master0_wb_adr_o[14]
*8 master0_wb_adr_o[15]
*9 master0_wb_adr_o[16]
*10 master0_wb_adr_o[17]
*11 master0_wb_adr_o[18]
*12 master0_wb_adr_o[19]
*13 master0_wb_adr_o[1]
*14 master0_wb_adr_o[20]
*15 master0_wb_adr_o[21]
*16 master0_wb_adr_o[22]
*17 master0_wb_adr_o[23]
*18 master0_wb_adr_o[24]
*19 master0_wb_adr_o[25]
*20 master0_wb_adr_o[26]
*21 master0_wb_adr_o[27]
*22 master0_wb_adr_o[2]
*23 master0_wb_adr_o[3]
*24 master0_wb_adr_o[4]
*25 master0_wb_adr_o[5]
*26 master0_wb_adr_o[6]
*27 master0_wb_adr_o[7]
*28 master0_wb_adr_o[8]
*29 master0_wb_adr_o[9]
*30 master0_wb_cyc_o
*31 master0_wb_data_i[0]
*32 master0_wb_data_i[10]
*33 master0_wb_data_i[11]
*34 master0_wb_data_i[12]
*35 master0_wb_data_i[13]
*36 master0_wb_data_i[14]
*37 master0_wb_data_i[15]
*38 master0_wb_data_i[16]
*39 master0_wb_data_i[17]
*40 master0_wb_data_i[18]
*41 master0_wb_data_i[19]
*42 master0_wb_data_i[1]
*43 master0_wb_data_i[20]
*44 master0_wb_data_i[21]
*45 master0_wb_data_i[22]
*46 master0_wb_data_i[23]
*47 master0_wb_data_i[24]
*48 master0_wb_data_i[25]
*49 master0_wb_data_i[26]
*50 master0_wb_data_i[27]
*51 master0_wb_data_i[28]
*52 master0_wb_data_i[29]
*53 master0_wb_data_i[2]
*54 master0_wb_data_i[30]
*55 master0_wb_data_i[31]
*56 master0_wb_data_i[3]
*57 master0_wb_data_i[4]
*58 master0_wb_data_i[5]
*59 master0_wb_data_i[6]
*60 master0_wb_data_i[7]
*61 master0_wb_data_i[8]
*62 master0_wb_data_i[9]
*63 master0_wb_data_o[0]
*64 master0_wb_data_o[10]
*65 master0_wb_data_o[11]
*66 master0_wb_data_o[12]
*67 master0_wb_data_o[13]
*68 master0_wb_data_o[14]
*69 master0_wb_data_o[15]
*70 master0_wb_data_o[16]
*71 master0_wb_data_o[17]
*72 master0_wb_data_o[18]
*73 master0_wb_data_o[19]
*74 master0_wb_data_o[1]
*75 master0_wb_data_o[20]
*76 master0_wb_data_o[21]
*77 master0_wb_data_o[22]
*78 master0_wb_data_o[23]
*79 master0_wb_data_o[24]
*80 master0_wb_data_o[25]
*81 master0_wb_data_o[26]
*82 master0_wb_data_o[27]
*83 master0_wb_data_o[28]
*84 master0_wb_data_o[29]
*85 master0_wb_data_o[2]
*86 master0_wb_data_o[30]
*87 master0_wb_data_o[31]
*88 master0_wb_data_o[3]
*89 master0_wb_data_o[4]
*90 master0_wb_data_o[5]
*91 master0_wb_data_o[6]
*92 master0_wb_data_o[7]
*93 master0_wb_data_o[8]
*94 master0_wb_data_o[9]
*95 master0_wb_error_i
*96 master0_wb_sel_o[0]
*97 master0_wb_sel_o[1]
*98 master0_wb_sel_o[2]
*99 master0_wb_sel_o[3]
*100 master0_wb_stall_i
*101 master0_wb_stb_o
*102 master0_wb_we_o
*103 master1_wb_ack_i
*104 master1_wb_adr_o[0]
*105 master1_wb_adr_o[10]
*106 master1_wb_adr_o[11]
*107 master1_wb_adr_o[12]
*108 master1_wb_adr_o[13]
*109 master1_wb_adr_o[14]
*110 master1_wb_adr_o[15]
*111 master1_wb_adr_o[16]
*112 master1_wb_adr_o[17]
*113 master1_wb_adr_o[18]
*114 master1_wb_adr_o[19]
*115 master1_wb_adr_o[1]
*116 master1_wb_adr_o[20]
*117 master1_wb_adr_o[21]
*118 master1_wb_adr_o[22]
*119 master1_wb_adr_o[23]
*120 master1_wb_adr_o[24]
*121 master1_wb_adr_o[25]
*122 master1_wb_adr_o[26]
*123 master1_wb_adr_o[27]
*124 master1_wb_adr_o[2]
*125 master1_wb_adr_o[3]
*126 master1_wb_adr_o[4]
*127 master1_wb_adr_o[5]
*128 master1_wb_adr_o[6]
*129 master1_wb_adr_o[7]
*130 master1_wb_adr_o[8]
*131 master1_wb_adr_o[9]
*132 master1_wb_cyc_o
*133 master1_wb_data_i[0]
*134 master1_wb_data_i[10]
*135 master1_wb_data_i[11]
*136 master1_wb_data_i[12]
*137 master1_wb_data_i[13]
*138 master1_wb_data_i[14]
*139 master1_wb_data_i[15]
*140 master1_wb_data_i[16]
*141 master1_wb_data_i[17]
*142 master1_wb_data_i[18]
*143 master1_wb_data_i[19]
*144 master1_wb_data_i[1]
*145 master1_wb_data_i[20]
*146 master1_wb_data_i[21]
*147 master1_wb_data_i[22]
*148 master1_wb_data_i[23]
*149 master1_wb_data_i[24]
*150 master1_wb_data_i[25]
*151 master1_wb_data_i[26]
*152 master1_wb_data_i[27]
*153 master1_wb_data_i[28]
*154 master1_wb_data_i[29]
*155 master1_wb_data_i[2]
*156 master1_wb_data_i[30]
*157 master1_wb_data_i[31]
*158 master1_wb_data_i[3]
*159 master1_wb_data_i[4]
*160 master1_wb_data_i[5]
*161 master1_wb_data_i[6]
*162 master1_wb_data_i[7]
*163 master1_wb_data_i[8]
*164 master1_wb_data_i[9]
*165 master1_wb_data_o[0]
*166 master1_wb_data_o[10]
*167 master1_wb_data_o[11]
*168 master1_wb_data_o[12]
*169 master1_wb_data_o[13]
*170 master1_wb_data_o[14]
*171 master1_wb_data_o[15]
*172 master1_wb_data_o[16]
*173 master1_wb_data_o[17]
*174 master1_wb_data_o[18]
*175 master1_wb_data_o[19]
*176 master1_wb_data_o[1]
*177 master1_wb_data_o[20]
*178 master1_wb_data_o[21]
*179 master1_wb_data_o[22]
*180 master1_wb_data_o[23]
*181 master1_wb_data_o[24]
*182 master1_wb_data_o[25]
*183 master1_wb_data_o[26]
*184 master1_wb_data_o[27]
*185 master1_wb_data_o[28]
*186 master1_wb_data_o[29]
*187 master1_wb_data_o[2]
*188 master1_wb_data_o[30]
*189 master1_wb_data_o[31]
*190 master1_wb_data_o[3]
*191 master1_wb_data_o[4]
*192 master1_wb_data_o[5]
*193 master1_wb_data_o[6]
*194 master1_wb_data_o[7]
*195 master1_wb_data_o[8]
*196 master1_wb_data_o[9]
*197 master1_wb_error_i
*198 master1_wb_sel_o[0]
*199 master1_wb_sel_o[1]
*200 master1_wb_sel_o[2]
*201 master1_wb_sel_o[3]
*202 master1_wb_stall_i
*203 master1_wb_stb_o
*204 master1_wb_we_o
*205 master2_wb_ack_i
*206 master2_wb_adr_o[0]
*207 master2_wb_adr_o[10]
*208 master2_wb_adr_o[11]
*209 master2_wb_adr_o[12]
*210 master2_wb_adr_o[13]
*211 master2_wb_adr_o[14]
*212 master2_wb_adr_o[15]
*213 master2_wb_adr_o[16]
*214 master2_wb_adr_o[17]
*215 master2_wb_adr_o[18]
*216 master2_wb_adr_o[19]
*217 master2_wb_adr_o[1]
*218 master2_wb_adr_o[20]
*219 master2_wb_adr_o[21]
*220 master2_wb_adr_o[22]
*221 master2_wb_adr_o[23]
*222 master2_wb_adr_o[24]
*223 master2_wb_adr_o[25]
*224 master2_wb_adr_o[26]
*225 master2_wb_adr_o[27]
*226 master2_wb_adr_o[2]
*227 master2_wb_adr_o[3]
*228 master2_wb_adr_o[4]
*229 master2_wb_adr_o[5]
*230 master2_wb_adr_o[6]
*231 master2_wb_adr_o[7]
*232 master2_wb_adr_o[8]
*233 master2_wb_adr_o[9]
*234 master2_wb_cyc_o
*235 master2_wb_data_i[0]
*236 master2_wb_data_i[10]
*237 master2_wb_data_i[11]
*238 master2_wb_data_i[12]
*239 master2_wb_data_i[13]
*240 master2_wb_data_i[14]
*241 master2_wb_data_i[15]
*242 master2_wb_data_i[16]
*243 master2_wb_data_i[17]
*244 master2_wb_data_i[18]
*245 master2_wb_data_i[19]
*246 master2_wb_data_i[1]
*247 master2_wb_data_i[20]
*248 master2_wb_data_i[21]
*249 master2_wb_data_i[22]
*250 master2_wb_data_i[23]
*251 master2_wb_data_i[24]
*252 master2_wb_data_i[25]
*253 master2_wb_data_i[26]
*254 master2_wb_data_i[27]
*255 master2_wb_data_i[28]
*256 master2_wb_data_i[29]
*257 master2_wb_data_i[2]
*258 master2_wb_data_i[30]
*259 master2_wb_data_i[31]
*260 master2_wb_data_i[3]
*261 master2_wb_data_i[4]
*262 master2_wb_data_i[5]
*263 master2_wb_data_i[6]
*264 master2_wb_data_i[7]
*265 master2_wb_data_i[8]
*266 master2_wb_data_i[9]
*267 master2_wb_data_o[0]
*268 master2_wb_data_o[10]
*269 master2_wb_data_o[11]
*270 master2_wb_data_o[12]
*271 master2_wb_data_o[13]
*272 master2_wb_data_o[14]
*273 master2_wb_data_o[15]
*274 master2_wb_data_o[16]
*275 master2_wb_data_o[17]
*276 master2_wb_data_o[18]
*277 master2_wb_data_o[19]
*278 master2_wb_data_o[1]
*279 master2_wb_data_o[20]
*280 master2_wb_data_o[21]
*281 master2_wb_data_o[22]
*282 master2_wb_data_o[23]
*283 master2_wb_data_o[24]
*284 master2_wb_data_o[25]
*285 master2_wb_data_o[26]
*286 master2_wb_data_o[27]
*287 master2_wb_data_o[28]
*288 master2_wb_data_o[29]
*289 master2_wb_data_o[2]
*290 master2_wb_data_o[30]
*291 master2_wb_data_o[31]
*292 master2_wb_data_o[3]
*293 master2_wb_data_o[4]
*294 master2_wb_data_o[5]
*295 master2_wb_data_o[6]
*296 master2_wb_data_o[7]
*297 master2_wb_data_o[8]
*298 master2_wb_data_o[9]
*299 master2_wb_error_i
*300 master2_wb_sel_o[0]
*301 master2_wb_sel_o[1]
*302 master2_wb_sel_o[2]
*303 master2_wb_sel_o[3]
*304 master2_wb_stall_i
*305 master2_wb_stb_o
*306 master2_wb_we_o
*307 probe_master0_currentSlave[0]
*308 probe_master0_currentSlave[1]
*309 probe_master1_currentSlave[0]
*310 probe_master1_currentSlave[1]
*311 probe_master2_currentSlave[0]
*312 probe_master2_currentSlave[1]
*313 net716
*314 net717
*315 probe_slave0_currentMaster[0]
*316 probe_slave0_currentMaster[1]
*317 probe_slave1_currentMaster[0]
*318 probe_slave1_currentMaster[1]
*319 probe_slave2_currentMaster[0]
*320 probe_slave2_currentMaster[1]
*321 probe_slave3_currentMaster[0]
*322 probe_slave3_currentMaster[1]
*323 slave0_wb_ack_o
*324 slave0_wb_adr_i[0]
*325 slave0_wb_adr_i[10]
*326 slave0_wb_adr_i[11]
*327 slave0_wb_adr_i[12]
*328 slave0_wb_adr_i[13]
*329 slave0_wb_adr_i[14]
*330 slave0_wb_adr_i[15]
*331 slave0_wb_adr_i[16]
*332 slave0_wb_adr_i[17]
*333 slave0_wb_adr_i[18]
*334 slave0_wb_adr_i[19]
*335 slave0_wb_adr_i[1]
*336 slave0_wb_adr_i[20]
*337 slave0_wb_adr_i[21]
*338 slave0_wb_adr_i[22]
*339 slave0_wb_adr_i[23]
*340 slave0_wb_adr_i[2]
*341 slave0_wb_adr_i[3]
*342 slave0_wb_adr_i[4]
*343 slave0_wb_adr_i[5]
*344 slave0_wb_adr_i[6]
*345 slave0_wb_adr_i[7]
*346 slave0_wb_adr_i[8]
*347 slave0_wb_adr_i[9]
*348 slave0_wb_cyc_i
*349 slave0_wb_data_i[0]
*350 slave0_wb_data_i[10]
*351 slave0_wb_data_i[11]
*352 slave0_wb_data_i[12]
*353 slave0_wb_data_i[13]
*354 slave0_wb_data_i[14]
*355 slave0_wb_data_i[15]
*356 slave0_wb_data_i[16]
*357 slave0_wb_data_i[17]
*358 slave0_wb_data_i[18]
*359 slave0_wb_data_i[19]
*360 slave0_wb_data_i[1]
*361 slave0_wb_data_i[20]
*362 slave0_wb_data_i[21]
*363 slave0_wb_data_i[22]
*364 slave0_wb_data_i[23]
*365 slave0_wb_data_i[24]
*366 slave0_wb_data_i[25]
*367 slave0_wb_data_i[26]
*368 slave0_wb_data_i[27]
*369 slave0_wb_data_i[28]
*370 slave0_wb_data_i[29]
*371 slave0_wb_data_i[2]
*372 slave0_wb_data_i[30]
*373 slave0_wb_data_i[31]
*374 slave0_wb_data_i[3]
*375 slave0_wb_data_i[4]
*376 slave0_wb_data_i[5]
*377 slave0_wb_data_i[6]
*378 slave0_wb_data_i[7]
*379 slave0_wb_data_i[8]
*380 slave0_wb_data_i[9]
*381 slave0_wb_data_o[0]
*382 slave0_wb_data_o[10]
*383 slave0_wb_data_o[11]
*384 slave0_wb_data_o[12]
*385 slave0_wb_data_o[13]
*386 slave0_wb_data_o[14]
*387 slave0_wb_data_o[15]
*388 slave0_wb_data_o[16]
*389 slave0_wb_data_o[17]
*390 slave0_wb_data_o[18]
*391 slave0_wb_data_o[19]
*392 slave0_wb_data_o[1]
*393 slave0_wb_data_o[20]
*394 slave0_wb_data_o[21]
*395 slave0_wb_data_o[22]
*396 slave0_wb_data_o[23]
*397 slave0_wb_data_o[24]
*398 slave0_wb_data_o[25]
*399 slave0_wb_data_o[26]
*400 slave0_wb_data_o[27]
*401 slave0_wb_data_o[28]
*402 slave0_wb_data_o[29]
*403 slave0_wb_data_o[2]
*404 slave0_wb_data_o[30]
*405 slave0_wb_data_o[31]
*406 slave0_wb_data_o[3]
*407 slave0_wb_data_o[4]
*408 slave0_wb_data_o[5]
*409 slave0_wb_data_o[6]
*410 slave0_wb_data_o[7]
*411 slave0_wb_data_o[8]
*412 slave0_wb_data_o[9]
*413 slave0_wb_error_o
*414 slave0_wb_sel_i[0]
*415 slave0_wb_sel_i[1]
*416 slave0_wb_sel_i[2]
*417 slave0_wb_sel_i[3]
*418 slave0_wb_stall_o
*419 slave0_wb_stb_i
*420 slave0_wb_we_i
*421 slave1_wb_ack_o
*422 slave1_wb_adr_i[0]
*423 slave1_wb_adr_i[10]
*424 slave1_wb_adr_i[11]
*425 slave1_wb_adr_i[12]
*426 slave1_wb_adr_i[13]
*427 slave1_wb_adr_i[14]
*428 slave1_wb_adr_i[15]
*429 slave1_wb_adr_i[16]
*430 slave1_wb_adr_i[17]
*431 slave1_wb_adr_i[18]
*432 slave1_wb_adr_i[19]
*433 slave1_wb_adr_i[1]
*434 slave1_wb_adr_i[20]
*435 slave1_wb_adr_i[21]
*436 slave1_wb_adr_i[22]
*437 slave1_wb_adr_i[23]
*438 slave1_wb_adr_i[2]
*439 slave1_wb_adr_i[3]
*440 slave1_wb_adr_i[4]
*441 slave1_wb_adr_i[5]
*442 slave1_wb_adr_i[6]
*443 slave1_wb_adr_i[7]
*444 slave1_wb_adr_i[8]
*445 slave1_wb_adr_i[9]
*446 slave1_wb_cyc_i
*447 slave1_wb_data_i[0]
*448 slave1_wb_data_i[10]
*449 slave1_wb_data_i[11]
*450 slave1_wb_data_i[12]
*451 slave1_wb_data_i[13]
*452 slave1_wb_data_i[14]
*453 slave1_wb_data_i[15]
*454 slave1_wb_data_i[16]
*455 slave1_wb_data_i[17]
*456 slave1_wb_data_i[18]
*457 slave1_wb_data_i[19]
*458 slave1_wb_data_i[1]
*459 slave1_wb_data_i[20]
*460 slave1_wb_data_i[21]
*461 slave1_wb_data_i[22]
*462 slave1_wb_data_i[23]
*463 slave1_wb_data_i[24]
*464 slave1_wb_data_i[25]
*465 slave1_wb_data_i[26]
*466 slave1_wb_data_i[27]
*467 slave1_wb_data_i[28]
*468 slave1_wb_data_i[29]
*469 slave1_wb_data_i[2]
*470 slave1_wb_data_i[30]
*471 slave1_wb_data_i[31]
*472 slave1_wb_data_i[3]
*473 slave1_wb_data_i[4]
*474 slave1_wb_data_i[5]
*475 slave1_wb_data_i[6]
*476 slave1_wb_data_i[7]
*477 slave1_wb_data_i[8]
*478 slave1_wb_data_i[9]
*479 slave1_wb_data_o[0]
*480 slave1_wb_data_o[10]
*481 slave1_wb_data_o[11]
*482 slave1_wb_data_o[12]
*483 slave1_wb_data_o[13]
*484 slave1_wb_data_o[14]
*485 slave1_wb_data_o[15]
*486 slave1_wb_data_o[16]
*487 slave1_wb_data_o[17]
*488 slave1_wb_data_o[18]
*489 slave1_wb_data_o[19]
*490 slave1_wb_data_o[1]
*491 slave1_wb_data_o[20]
*492 slave1_wb_data_o[21]
*493 slave1_wb_data_o[22]
*494 slave1_wb_data_o[23]
*495 slave1_wb_data_o[24]
*496 slave1_wb_data_o[25]
*497 slave1_wb_data_o[26]
*498 slave1_wb_data_o[27]
*499 slave1_wb_data_o[28]
*500 slave1_wb_data_o[29]
*501 slave1_wb_data_o[2]
*502 slave1_wb_data_o[30]
*503 slave1_wb_data_o[31]
*504 slave1_wb_data_o[3]
*505 slave1_wb_data_o[4]
*506 slave1_wb_data_o[5]
*507 slave1_wb_data_o[6]
*508 slave1_wb_data_o[7]
*509 slave1_wb_data_o[8]
*510 slave1_wb_data_o[9]
*511 slave1_wb_error_o
*512 slave1_wb_sel_i[0]
*513 slave1_wb_sel_i[1]
*514 slave1_wb_sel_i[2]
*515 slave1_wb_sel_i[3]
*516 slave1_wb_stall_o
*517 slave1_wb_stb_i
*518 slave1_wb_we_i
*519 slave2_wb_ack_o
*520 slave2_wb_adr_i[0]
*521 slave2_wb_adr_i[10]
*522 slave2_wb_adr_i[11]
*523 slave2_wb_adr_i[12]
*524 slave2_wb_adr_i[13]
*525 slave2_wb_adr_i[14]
*526 slave2_wb_adr_i[15]
*527 slave2_wb_adr_i[16]
*528 slave2_wb_adr_i[17]
*529 slave2_wb_adr_i[18]
*530 slave2_wb_adr_i[19]
*531 slave2_wb_adr_i[1]
*532 slave2_wb_adr_i[20]
*533 slave2_wb_adr_i[21]
*534 slave2_wb_adr_i[22]
*535 slave2_wb_adr_i[23]
*536 slave2_wb_adr_i[2]
*537 slave2_wb_adr_i[3]
*538 slave2_wb_adr_i[4]
*539 slave2_wb_adr_i[5]
*540 slave2_wb_adr_i[6]
*541 slave2_wb_adr_i[7]
*542 slave2_wb_adr_i[8]
*543 slave2_wb_adr_i[9]
*544 slave2_wb_cyc_i
*545 slave2_wb_data_i[0]
*546 slave2_wb_data_i[10]
*547 slave2_wb_data_i[11]
*548 slave2_wb_data_i[12]
*549 slave2_wb_data_i[13]
*550 slave2_wb_data_i[14]
*551 slave2_wb_data_i[15]
*552 slave2_wb_data_i[16]
*553 slave2_wb_data_i[17]
*554 slave2_wb_data_i[18]
*555 slave2_wb_data_i[19]
*556 slave2_wb_data_i[1]
*557 slave2_wb_data_i[20]
*558 slave2_wb_data_i[21]
*559 slave2_wb_data_i[22]
*560 slave2_wb_data_i[23]
*561 slave2_wb_data_i[24]
*562 slave2_wb_data_i[25]
*563 slave2_wb_data_i[26]
*564 slave2_wb_data_i[27]
*565 slave2_wb_data_i[28]
*566 slave2_wb_data_i[29]
*567 slave2_wb_data_i[2]
*568 slave2_wb_data_i[30]
*569 slave2_wb_data_i[31]
*570 slave2_wb_data_i[3]
*571 slave2_wb_data_i[4]
*572 slave2_wb_data_i[5]
*573 slave2_wb_data_i[6]
*574 slave2_wb_data_i[7]
*575 slave2_wb_data_i[8]
*576 slave2_wb_data_i[9]
*577 slave2_wb_data_o[0]
*578 slave2_wb_data_o[10]
*579 slave2_wb_data_o[11]
*580 slave2_wb_data_o[12]
*581 slave2_wb_data_o[13]
*582 slave2_wb_data_o[14]
*583 slave2_wb_data_o[15]
*584 slave2_wb_data_o[16]
*585 slave2_wb_data_o[17]
*586 slave2_wb_data_o[18]
*587 slave2_wb_data_o[19]
*588 slave2_wb_data_o[1]
*589 slave2_wb_data_o[20]
*590 slave2_wb_data_o[21]
*591 slave2_wb_data_o[22]
*592 slave2_wb_data_o[23]
*593 slave2_wb_data_o[24]
*594 slave2_wb_data_o[25]
*595 slave2_wb_data_o[26]
*596 slave2_wb_data_o[27]
*597 slave2_wb_data_o[28]
*598 slave2_wb_data_o[29]
*599 slave2_wb_data_o[2]
*600 slave2_wb_data_o[30]
*601 slave2_wb_data_o[31]
*602 slave2_wb_data_o[3]
*603 slave2_wb_data_o[4]
*604 slave2_wb_data_o[5]
*605 slave2_wb_data_o[6]
*606 slave2_wb_data_o[7]
*607 slave2_wb_data_o[8]
*608 slave2_wb_data_o[9]
*609 slave2_wb_error_o
*610 slave2_wb_sel_i[0]
*611 slave2_wb_sel_i[1]
*612 slave2_wb_sel_i[2]
*613 slave2_wb_sel_i[3]
*614 slave2_wb_stall_o
*615 slave2_wb_stb_i
*616 slave2_wb_we_i
*617 slave3_wb_ack_o
*618 slave3_wb_adr_i[0]
*619 slave3_wb_adr_i[10]
*620 slave3_wb_adr_i[11]
*621 slave3_wb_adr_i[12]
*622 slave3_wb_adr_i[13]
*623 slave3_wb_adr_i[14]
*624 slave3_wb_adr_i[15]
*625 slave3_wb_adr_i[16]
*626 slave3_wb_adr_i[17]
*627 slave3_wb_adr_i[18]
*628 slave3_wb_adr_i[19]
*629 slave3_wb_adr_i[1]
*630 slave3_wb_adr_i[20]
*631 slave3_wb_adr_i[21]
*632 slave3_wb_adr_i[22]
*633 slave3_wb_adr_i[23]
*634 slave3_wb_adr_i[2]
*635 slave3_wb_adr_i[3]
*636 slave3_wb_adr_i[4]
*637 slave3_wb_adr_i[5]
*638 slave3_wb_adr_i[6]
*639 slave3_wb_adr_i[7]
*640 slave3_wb_adr_i[8]
*641 slave3_wb_adr_i[9]
*642 slave3_wb_cyc_i
*643 slave3_wb_data_i[0]
*644 slave3_wb_data_i[10]
*645 slave3_wb_data_i[11]
*646 slave3_wb_data_i[12]
*647 slave3_wb_data_i[13]
*648 slave3_wb_data_i[14]
*649 slave3_wb_data_i[15]
*650 slave3_wb_data_i[16]
*651 slave3_wb_data_i[17]
*652 slave3_wb_data_i[18]
*653 slave3_wb_data_i[19]
*654 slave3_wb_data_i[1]
*655 slave3_wb_data_i[20]
*656 slave3_wb_data_i[21]
*657 slave3_wb_data_i[22]
*658 slave3_wb_data_i[23]
*659 slave3_wb_data_i[24]
*660 slave3_wb_data_i[25]
*661 slave3_wb_data_i[26]
*662 slave3_wb_data_i[27]
*663 slave3_wb_data_i[28]
*664 slave3_wb_data_i[29]
*665 slave3_wb_data_i[2]
*666 slave3_wb_data_i[30]
*667 slave3_wb_data_i[31]
*668 slave3_wb_data_i[3]
*669 slave3_wb_data_i[4]
*670 slave3_wb_data_i[5]
*671 slave3_wb_data_i[6]
*672 slave3_wb_data_i[7]
*673 slave3_wb_data_i[8]
*674 slave3_wb_data_i[9]
*675 slave3_wb_data_o[0]
*676 slave3_wb_data_o[10]
*677 slave3_wb_data_o[11]
*678 slave3_wb_data_o[12]
*679 slave3_wb_data_o[13]
*680 slave3_wb_data_o[14]
*681 slave3_wb_data_o[15]
*682 slave3_wb_data_o[16]
*683 slave3_wb_data_o[17]
*684 slave3_wb_data_o[18]
*685 slave3_wb_data_o[19]
*686 slave3_wb_data_o[1]
*687 slave3_wb_data_o[20]
*688 slave3_wb_data_o[21]
*689 slave3_wb_data_o[22]
*690 slave3_wb_data_o[23]
*691 slave3_wb_data_o[24]
*692 slave3_wb_data_o[25]
*693 slave3_wb_data_o[26]
*694 slave3_wb_data_o[27]
*695 slave3_wb_data_o[28]
*696 slave3_wb_data_o[29]
*697 slave3_wb_data_o[2]
*698 slave3_wb_data_o[30]
*699 slave3_wb_data_o[31]
*700 slave3_wb_data_o[3]
*701 slave3_wb_data_o[4]
*702 slave3_wb_data_o[5]
*703 slave3_wb_data_o[6]
*704 slave3_wb_data_o[7]
*705 slave3_wb_data_o[8]
*706 slave3_wb_data_o[9]
*707 slave3_wb_error_o
*708 slave3_wb_sel_i[0]
*709 slave3_wb_sel_i[1]
*710 slave3_wb_sel_i[2]
*711 slave3_wb_sel_i[3]
*712 slave3_wb_stall_o
*713 slave3_wb_stb_i
*714 slave3_wb_we_i
*717 wb_clk_i
*718 wb_rst_i
*719 _0000_
*720 _0001_
*721 _0002_
*722 _0003_
*723 _0004_
*724 _0005_
*725 _0006_
*726 _0007_
*727 _0008_
*728 _0009_
*729 _0010_
*730 _0011_
*731 _0012_
*732 _0013_
*733 _0014_
*734 _0015_
*735 _0016_
*736 _0017_
*737 _0018_
*738 _0019_
*739 _0020_
*740 _0021_
*741 _0022_
*742 _0023_
*743 _0024_
*744 _0025_
*745 _0026_
*746 _0027_
*747 _0028_
*748 _0029_
*749 _0030_
*750 _0031_
*751 _0032_
*752 _0033_
*753 _0034_
*754 _0035_
*755 _0036_
*756 _0037_
*757 _0038_
*758 _0039_
*759 _0040_
*760 _0041_
*761 _0042_
*762 _0043_
*763 _0044_
*764 _0045_
*765 _0046_
*766 _0047_
*767 _0048_
*768 _0049_
*769 _0050_
*770 _0051_
*771 _0052_
*772 _0053_
*773 _0054_
*774 _0055_
*775 _0056_
*776 _0057_
*777 _0058_
*778 _0059_
*779 _0060_
*780 _0061_
*781 _0062_
*782 _0063_
*783 _0064_
*784 _0065_
*785 _0066_
*786 _0067_
*787 _0068_
*788 _0069_
*789 _0070_
*790 _0071_
*791 _0072_
*792 _0073_
*793 _0074_
*794 _0075_
*795 _0076_
*796 _0077_
*797 _0078_
*798 _0079_
*799 _0080_
*800 _0081_
*801 _0082_
*802 _0083_
*803 _0084_
*804 _0085_
*805 _0086_
*806 _0087_
*807 _0088_
*808 _0089_
*809 _0090_
*810 _0091_
*811 _0092_
*812 _0093_
*813 _0094_
*814 _0095_
*815 _0096_
*816 _0097_
*817 _0098_
*818 _0099_
*819 _0100_
*820 _0101_
*821 _0102_
*822 _0103_
*823 _0104_
*824 _0105_
*825 _0106_
*826 _0107_
*827 _0108_
*828 _0109_
*829 _0110_
*830 _0111_
*831 _0112_
*832 _0113_
*833 _0114_
*834 _0115_
*835 _0116_
*836 _0117_
*837 _0118_
*838 _0119_
*839 _0120_
*840 _0121_
*841 _0122_
*842 _0123_
*843 _0124_
*844 _0125_
*845 _0126_
*846 _0127_
*847 _0128_
*848 _0129_
*849 _0130_
*850 _0131_
*851 _0132_
*852 _0133_
*853 _0134_
*854 _0135_
*855 _0136_
*856 _0137_
*857 _0138_
*858 _0139_
*859 _0140_
*860 _0141_
*861 _0142_
*862 _0143_
*863 _0144_
*864 _0145_
*865 _0146_
*866 _0147_
*867 _0148_
*868 _0149_
*869 _0150_
*870 _0151_
*871 _0152_
*872 _0153_
*873 _0154_
*874 _0155_
*875 _0156_
*876 _0157_
*877 _0158_
*878 _0159_
*879 _0160_
*880 _0161_
*881 _0162_
*882 _0163_
*883 _0164_
*884 _0165_
*885 _0166_
*886 _0167_
*887 _0168_
*888 _0169_
*889 _0170_
*890 _0171_
*891 _0172_
*892 _0173_
*893 _0174_
*894 _0175_
*895 _0176_
*896 _0177_
*897 _0178_
*898 _0179_
*899 _0180_
*900 _0181_
*901 _0182_
*902 _0183_
*903 _0184_
*904 _0185_
*905 _0186_
*906 _0187_
*907 _0188_
*908 _0189_
*909 _0190_
*910 _0191_
*911 _0192_
*912 _0193_
*913 _0194_
*914 _0195_
*915 _0196_
*916 _0197_
*917 _0198_
*918 _0199_
*919 _0200_
*920 _0201_
*921 _0202_
*922 _0203_
*923 _0204_
*924 _0205_
*925 _0206_
*926 _0207_
*927 _0208_
*928 _0209_
*929 _0210_
*930 _0211_
*931 _0212_
*932 _0213_
*933 _0214_
*934 _0215_
*935 _0216_
*936 _0217_
*937 _0218_
*938 _0219_
*939 _0220_
*940 _0221_
*941 _0222_
*942 _0223_
*943 _0224_
*944 _0225_
*945 _0226_
*946 _0227_
*947 _0228_
*948 _0229_
*949 _0230_
*950 _0231_
*951 _0232_
*952 _0233_
*953 _0234_
*954 _0235_
*955 _0236_
*956 _0237_
*957 _0238_
*958 _0239_
*959 _0240_
*960 _0241_
*961 _0242_
*962 _0243_
*963 _0244_
*964 _0245_
*965 _0246_
*966 _0247_
*967 _0248_
*968 _0249_
*969 _0250_
*970 _0251_
*971 _0252_
*972 _0253_
*973 _0254_
*974 _0255_
*975 _0256_
*976 _0257_
*977 _0258_
*978 _0259_
*979 _0260_
*980 _0261_
*981 _0262_
*982 _0263_
*983 _0264_
*984 _0265_
*985 _0266_
*986 _0267_
*987 _0268_
*988 _0269_
*989 _0270_
*990 _0271_
*991 _0272_
*992 _0273_
*993 _0274_
*994 _0275_
*995 _0276_
*996 _0277_
*997 _0278_
*998 _0279_
*999 _0280_
*1000 _0281_
*1001 _0282_
*1002 _0283_
*1003 _0284_
*1004 _0285_
*1005 _0286_
*1006 _0287_
*1007 _0288_
*1008 _0289_
*1009 _0290_
*1010 _0291_
*1011 _0292_
*1012 _0293_
*1013 _0294_
*1014 _0295_
*1015 _0296_
*1016 _0297_
*1017 _0298_
*1018 _0299_
*1019 _0300_
*1020 _0301_
*1021 _0302_
*1022 _0303_
*1023 _0304_
*1024 _0305_
*1025 _0306_
*1026 _0307_
*1027 _0308_
*1028 _0309_
*1029 _0310_
*1030 _0311_
*1031 _0312_
*1032 _0313_
*1033 _0314_
*1034 _0315_
*1035 _0316_
*1036 _0317_
*1037 _0318_
*1038 _0319_
*1039 _0320_
*1040 _0321_
*1041 _0322_
*1042 _0323_
*1043 _0324_
*1044 _0325_
*1045 _0326_
*1046 _0327_
*1047 _0328_
*1048 _0329_
*1049 _0330_
*1050 _0331_
*1051 _0332_
*1052 _0333_
*1053 _0334_
*1054 _0335_
*1055 _0336_
*1056 _0337_
*1057 _0338_
*1058 _0339_
*1059 _0340_
*1060 _0341_
*1061 _0342_
*1062 _0343_
*1063 _0344_
*1064 _0345_
*1065 _0346_
*1066 _0347_
*1067 _0348_
*1068 _0349_
*1069 _0350_
*1070 _0351_
*1071 _0352_
*1072 _0353_
*1073 _0354_
*1074 _0355_
*1075 _0356_
*1076 _0357_
*1077 _0358_
*1078 _0359_
*1079 _0360_
*1080 _0361_
*1081 _0362_
*1082 _0363_
*1083 _0364_
*1084 _0365_
*1085 _0366_
*1086 _0367_
*1087 _0368_
*1088 _0369_
*1089 _0370_
*1090 _0371_
*1091 _0372_
*1092 _0373_
*1093 _0374_
*1094 _0375_
*1095 _0376_
*1096 _0377_
*1097 _0378_
*1098 _0379_
*1099 _0380_
*1100 _0381_
*1101 _0382_
*1102 _0383_
*1103 _0384_
*1104 _0385_
*1105 _0386_
*1106 _0387_
*1107 _0388_
*1108 _0389_
*1109 _0390_
*1110 _0391_
*1111 _0392_
*1112 _0393_
*1113 _0394_
*1114 _0395_
*1115 _0396_
*1116 _0397_
*1117 _0398_
*1118 _0399_
*1119 _0400_
*1120 _0401_
*1121 _0402_
*1122 _0403_
*1123 _0404_
*1124 _0405_
*1125 _0406_
*1126 _0407_
*1127 _0408_
*1128 _0409_
*1129 _0410_
*1130 _0411_
*1131 _0412_
*1132 _0413_
*1133 _0414_
*1134 _0415_
*1135 _0416_
*1136 _0417_
*1137 _0418_
*1138 _0419_
*1139 _0420_
*1140 _0421_
*1141 _0422_
*1142 _0423_
*1143 _0424_
*1144 _0425_
*1145 _0426_
*1146 _0427_
*1147 _0428_
*1148 _0429_
*1149 _0430_
*1150 _0431_
*1151 _0432_
*1152 _0433_
*1153 _0434_
*1154 _0435_
*1155 _0436_
*1156 _0437_
*1157 _0438_
*1158 _0439_
*1159 _0440_
*1160 _0441_
*1161 _0442_
*1162 _0443_
*1163 _0444_
*1164 _0445_
*1165 _0446_
*1166 _0447_
*1167 _0448_
*1168 _0449_
*1169 _0450_
*1170 _0451_
*1171 _0452_
*1172 _0453_
*1173 _0454_
*1174 _0455_
*1175 _0456_
*1176 _0457_
*1177 _0458_
*1178 _0459_
*1179 _0460_
*1180 _0461_
*1181 _0462_
*1182 _0463_
*1183 _0464_
*1184 _0465_
*1185 _0466_
*1186 _0467_
*1187 _0468_
*1188 _0469_
*1189 _0470_
*1190 _0471_
*1191 _0472_
*1192 _0473_
*1193 _0474_
*1194 _0475_
*1195 _0476_
*1196 _0477_
*1197 _0478_
*1198 _0479_
*1199 _0480_
*1200 _0481_
*1201 _0482_
*1202 _0483_
*1203 _0484_
*1204 _0485_
*1205 _0486_
*1206 _0487_
*1207 _0488_
*1208 _0489_
*1209 _0490_
*1210 _0491_
*1211 _0492_
*1212 _0493_
*1213 _0494_
*1214 _0495_
*1215 _0496_
*1216 _0497_
*1217 _0498_
*1218 _0499_
*1219 _0500_
*1220 _0501_
*1221 _0502_
*1222 _0503_
*1223 _0504_
*1224 _0505_
*1225 _0506_
*1226 _0507_
*1227 _0508_
*1228 _0509_
*1229 _0510_
*1230 _0511_
*1231 _0512_
*1232 _0513_
*1233 _0514_
*1234 _0515_
*1235 _0516_
*1236 _0517_
*1237 _0518_
*1238 _0519_
*1239 _0520_
*1240 _0521_
*1241 _0522_
*1242 _0523_
*1243 _0524_
*1244 _0525_
*1245 _0526_
*1246 _0527_
*1247 _0528_
*1248 _0529_
*1249 _0530_
*1250 _0531_
*1251 _0532_
*1252 _0533_
*1253 _0534_
*1254 _0535_
*1255 _0536_
*1256 _0537_
*1257 _0538_
*1258 _0539_
*1259 _0540_
*1260 _0541_
*1261 _0542_
*1262 _0543_
*1263 _0544_
*1264 _0545_
*1265 _0546_
*1266 _0547_
*1267 _0548_
*1268 _0549_
*1269 _0550_
*1270 _0551_
*1271 _0552_
*1272 _0553_
*1273 _0554_
*1274 _0555_
*1275 _0556_
*1276 _0557_
*1277 _0558_
*1278 _0559_
*1279 _0560_
*1280 _0561_
*1281 _0562_
*1282 _0563_
*1283 _0564_
*1284 _0565_
*1285 _0566_
*1286 _0567_
*1287 _0568_
*1288 _0569_
*1289 _0570_
*1290 _0571_
*1291 _0572_
*1292 _0573_
*1293 _0574_
*1294 _0575_
*1295 _0576_
*1296 _0577_
*1297 _0578_
*1298 _0579_
*1299 _0580_
*1300 _0581_
*1301 _0582_
*1302 _0583_
*1303 _0584_
*1304 _0585_
*1305 _0586_
*1306 _0587_
*1307 _0588_
*1308 _0589_
*1309 _0590_
*1310 _0591_
*1311 _0592_
*1312 _0593_
*1313 _0594_
*1314 _0595_
*1315 _0596_
*1316 _0597_
*1317 _0598_
*1318 _0599_
*1319 _0600_
*1320 _0601_
*1321 _0602_
*1322 _0603_
*1323 _0604_
*1324 _0605_
*1325 _0606_
*1326 _0607_
*1327 _0608_
*1328 _0609_
*1329 _0610_
*1330 _0611_
*1331 _0612_
*1332 _0613_
*1333 _0614_
*1334 _0615_
*1335 _0616_
*1336 _0617_
*1337 _0618_
*1338 _0619_
*1339 _0620_
*1340 _0621_
*1341 _0622_
*1342 _0623_
*1343 _0624_
*1344 _0625_
*1345 _0626_
*1346 _0627_
*1347 _0628_
*1348 _0629_
*1349 _0630_
*1350 _0631_
*1351 _0632_
*1352 _0633_
*1353 _0634_
*1354 _0635_
*1355 _0636_
*1356 _0637_
*1357 _0638_
*1358 _0639_
*1359 _0640_
*1360 _0641_
*1361 _0642_
*1362 _0643_
*1363 _0644_
*1364 _0645_
*1365 _0646_
*1366 _0647_
*1367 _0648_
*1368 _0649_
*1369 _0650_
*1370 _0651_
*1371 _0652_
*1372 _0653_
*1373 _0654_
*1374 _0655_
*1375 _0656_
*1376 _0657_
*1377 _0658_
*1378 _0659_
*1379 _0660_
*1380 _0661_
*1381 _0662_
*1382 _0663_
*1383 _0664_
*1384 _0665_
*1385 _0666_
*1386 _0667_
*1387 _0668_
*1388 _0669_
*1389 _0670_
*1390 _0671_
*1391 _0672_
*1392 _0673_
*1393 _0674_
*1394 _0675_
*1395 _0676_
*1396 _0677_
*1397 _0678_
*1398 _0679_
*1399 _0680_
*1400 _0681_
*1401 _0682_
*1402 _0683_
*1403 _0684_
*1404 _0685_
*1405 _0686_
*1406 _0687_
*1407 _0688_
*1408 _0689_
*1409 _0690_
*1410 _0691_
*1411 _0692_
*1412 _0693_
*1413 _0694_
*1414 _0695_
*1415 _0696_
*1416 _0697_
*1417 _0698_
*1418 _0699_
*1419 _0700_
*1420 _0701_
*1421 _0702_
*1422 _0703_
*1423 _0704_
*1424 _0705_
*1425 _0706_
*1426 _0707_
*1427 _0708_
*1428 _0709_
*1429 _0710_
*1430 _0711_
*1431 _0712_
*1432 _0713_
*1433 _0714_
*1434 _0715_
*1435 _0716_
*1436 _0717_
*1437 _0718_
*1438 _0719_
*1439 _0720_
*1440 _0721_
*1441 _0722_
*1442 _0723_
*1443 _0724_
*1444 _0725_
*1445 _0726_
*1446 _0727_
*1447 _0728_
*1448 _0729_
*1449 _0730_
*1450 _0731_
*1451 _0732_
*1452 _0733_
*1453 _0734_
*1454 _0735_
*1455 _0736_
*1456 _0737_
*1457 _0738_
*1458 _0739_
*1459 _0740_
*1460 _0741_
*1461 _0742_
*1462 _0743_
*1463 _0744_
*1464 _0745_
*1465 _0746_
*1466 _0747_
*1467 _0748_
*1468 _0749_
*1469 _0750_
*1470 _0751_
*1471 _0752_
*1472 _0753_
*1473 _0754_
*1474 _0755_
*1475 _0756_
*1476 _0757_
*1477 _0758_
*1478 _0759_
*1479 _0760_
*1480 _0761_
*1481 _0762_
*1482 _0763_
*1483 _0764_
*1484 _0765_
*1485 _0766_
*1486 _0767_
*1487 _0768_
*1488 _0769_
*1489 _0770_
*1490 _0771_
*1491 _0772_
*1492 _0773_
*1493 _0774_
*1494 _0775_
*1495 _0776_
*1496 _0777_
*1497 _0778_
*1498 _0779_
*1499 _0780_
*1500 _0781_
*1501 _0782_
*1502 _0783_
*1503 _0784_
*1504 _0785_
*1505 _0786_
*1506 _0787_
*1507 _0788_
*1508 _0789_
*1509 _0790_
*1510 _0791_
*1511 _0792_
*1512 _0793_
*1513 _0794_
*1514 _0795_
*1515 _0796_
*1516 _0797_
*1517 _0798_
*1518 _0799_
*1519 _0800_
*1520 _0801_
*1521 _0802_
*1522 _0803_
*1523 _0804_
*1524 _0805_
*1525 _0806_
*1526 _0807_
*1527 _0808_
*1528 _0809_
*1529 _0810_
*1530 _0811_
*1531 _0812_
*1532 _0813_
*1533 _0814_
*1534 _0815_
*1535 _0816_
*1536 _0817_
*1537 _0818_
*1538 _0819_
*1539 _0820_
*1540 _0821_
*1541 _0822_
*1542 _0823_
*1543 _0824_
*1544 _0825_
*1545 _0826_
*1546 _0827_
*1547 _0828_
*1548 _0829_
*1549 _0830_
*1550 _0831_
*1551 _0832_
*1552 _0833_
*1553 _0834_
*1554 _0835_
*1555 _0836_
*1556 _0837_
*1557 _0838_
*1558 _0839_
*1559 _0840_
*1560 _0841_
*1561 _0842_
*1562 _0843_
*1563 _0844_
*1564 _0845_
*1565 _0846_
*1566 _0847_
*1567 _0848_
*1568 _0849_
*1569 _0850_
*1570 _0851_
*1571 _0852_
*1572 _0853_
*1573 _0854_
*1574 _0855_
*1575 _0856_
*1576 _0857_
*1577 _0858_
*1578 _0859_
*1579 _0860_
*1580 _0861_
*1581 _0862_
*1582 _0863_
*1583 _0864_
*1584 _0865_
*1585 _0866_
*1586 _0867_
*1587 _0868_
*1588 _0869_
*1589 _0870_
*1590 _0871_
*1591 _0872_
*1592 _0873_
*1593 _0874_
*1594 _0875_
*1595 _0876_
*1596 _0877_
*1597 _0878_
*1598 _0879_
*1599 _0880_
*1600 _0881_
*1601 _0882_
*1602 _0883_
*1603 _0884_
*1604 _0885_
*1605 _0886_
*1606 _0887_
*1607 _0888_
*1608 _0889_
*1609 _0890_
*1610 _0891_
*1611 _0892_
*1612 _0893_
*1613 _0894_
*1614 _0895_
*1615 _0896_
*1616 _0897_
*1617 _0898_
*1618 _0899_
*1619 _0900_