*SPEF "ieee 1481-1999"
*DESIGN "user_project_wrapper"
*DATE "11:11:11 Fri 11 11, 1111"
*VENDOR "OpenRCX"
*PROGRAM "Parallel Extraction"
*VERSION "1.0"
*DESIGN_FLOW "NAME_SCOPE LOCAL" "PIN_CAP NONE"
*DIVIDER /
*DELIMITER :
*BUS_DELIMITER []
*T_UNIT 1 NS
*C_UNIT 1 PF
*R_UNIT 1 OHM
*L_UNIT 1 HENRY

*NAME_MAP
*1 analog_io[0]
*2 analog_io[10]
*3 analog_io[11]
*4 analog_io[12]
*5 analog_io[13]
*6 analog_io[14]
*7 analog_io[15]
*8 analog_io[16]
*9 analog_io[17]
*10 analog_io[18]
*11 analog_io[19]
*12 analog_io[1]
*13 analog_io[20]
*14 analog_io[21]
*15 analog_io[22]
*16 analog_io[23]
*17 analog_io[24]
*18 analog_io[25]
*19 analog_io[26]
*20 analog_io[27]
*21 analog_io[28]
*22 analog_io[2]
*23 analog_io[3]
*24 analog_io[4]
*25 analog_io[5]
*26 analog_io[6]
*27 analog_io[7]
*28 analog_io[8]
*29 analog_io[9]
*30 io_in[0]
*31 io_in[10]
*32 io_in[11]
*33 io_in[12]
*34 io_in[13]
*35 io_in[14]
*36 io_in[15]
*37 io_in[16]
*38 io_in[17]
*39 io_in[18]
*40 io_in[19]
*41 io_in[1]
*42 io_in[20]
*43 io_in[21]
*44 io_in[22]
*45 io_in[23]
*46 io_in[24]
*47 io_in[25]
*48 io_in[26]
*49 io_in[27]
*50 io_in[28]
*51 io_in[29]
*52 io_in[2]
*53 io_in[30]
*54 io_in[31]
*55 io_in[32]
*56 io_in[33]
*57 io_in[34]
*58 io_in[35]
*59 io_in[36]
*60 io_in[37]
*61 io_in[3]
*62 io_in[4]
*63 io_in[5]
*64 io_in[6]
*65 io_in[7]
*66 io_in[8]
*67 io_in[9]
*68 io_oeb[0]
*69 io_oeb[10]
*70 io_oeb[11]
*71 io_oeb[12]
*72 io_oeb[13]
*73 io_oeb[14]
*74 io_oeb[15]
*75 io_oeb[16]
*76 io_oeb[17]
*77 io_oeb[18]
*78 io_oeb[19]
*79 io_oeb[1]
*80 io_oeb[20]
*81 io_oeb[21]
*82 io_oeb[22]
*83 io_oeb[23]
*84 io_oeb[24]
*85 io_oeb[25]
*86 io_oeb[26]
*87 io_oeb[27]
*88 io_oeb[28]
*89 io_oeb[29]
*90 io_oeb[2]
*91 io_oeb[30]
*92 io_oeb[31]
*93 io_oeb[32]
*94 io_oeb[33]
*95 io_oeb[34]
*96 io_oeb[35]
*97 io_oeb[36]
*98 io_oeb[37]
*99 io_oeb[3]
*100 io_oeb[4]
*101 io_oeb[5]
*102 io_oeb[6]
*103 io_oeb[7]
*104 io_oeb[8]
*105 io_oeb[9]
*106 io_out[0]
*107 io_out[10]
*108 io_out[11]
*109 io_out[12]
*110 io_out[13]
*111 io_out[14]
*112 io_out[15]
*113 io_out[16]
*114 io_out[17]
*115 io_out[18]
*116 io_out[19]
*117 io_out[1]
*118 io_out[20]
*119 io_out[21]
*120 io_out[22]
*121 io_out[23]
*122 io_out[24]
*123 io_out[25]
*124 io_out[26]
*125 io_out[27]
*126 io_out[28]
*127 io_out[29]
*128 io_out[2]
*129 io_out[30]
*130 io_out[31]
*131 io_out[32]
*132 io_out[33]
*133 io_out[34]
*134 io_out[35]
*135 io_out[36]
*136 io_out[37]
*137 io_out[3]
*138 io_out[4]
*139 io_out[5]
*140 io_out[6]
*141 io_out[7]
*142 io_out[8]
*143 io_out[9]
*144 la_data_in[0]
*145 la_data_in[100]
*146 la_data_in[101]
*147 la_data_in[102]
*148 la_data_in[103]
*149 la_data_in[104]
*150 la_data_in[105]
*151 la_data_in[106]
*152 la_data_in[107]
*153 la_data_in[108]
*154 la_data_in[109]
*155 la_data_in[10]
*156 la_data_in[110]
*157 la_data_in[111]
*158 la_data_in[112]
*159 la_data_in[113]
*160 la_data_in[114]
*161 la_data_in[115]
*162 la_data_in[116]
*163 la_data_in[117]
*164 la_data_in[118]
*165 la_data_in[119]
*166 la_data_in[11]
*167 la_data_in[120]
*168 la_data_in[121]
*169 la_data_in[122]
*170 la_data_in[123]
*171 la_data_in[124]
*172 la_data_in[125]
*173 la_data_in[126]
*174 la_data_in[127]
*175 la_data_in[12]
*176 la_data_in[13]
*177 la_data_in[14]
*178 la_data_in[15]
*179 la_data_in[16]
*180 la_data_in[17]
*181 la_data_in[18]
*182 la_data_in[19]
*183 la_data_in[1]
*184 la_data_in[20]
*185 la_data_in[21]
*186 la_data_in[22]
*187 la_data_in[23]
*188 la_data_in[24]
*189 la_data_in[25]
*190 la_data_in[26]
*191 la_data_in[27]
*192 la_data_in[28]
*193 la_data_in[29]
*194 la_data_in[2]
*195 la_data_in[30]
*196 la_data_in[31]
*197 la_data_in[32]
*198 la_data_in[33]
*199 la_data_in[34]
*200 la_data_in[35]
*201 la_data_in[36]
*202 la_data_in[37]
*203 la_data_in[38]
*204 la_data_in[39]
*205 la_data_in[3]
*206 la_data_in[40]
*207 la_data_in[41]
*208 la_data_in[42]
*209 la_data_in[43]
*210 la_data_in[44]
*211 la_data_in[45]
*212 la_data_in[46]
*213 la_data_in[47]
*214 la_data_in[48]
*215 la_data_in[49]
*216 la_data_in[4]
*217 la_data_in[50]
*218 la_data_in[51]
*219 la_data_in[52]
*220 la_data_in[53]
*221 la_data_in[54]
*222 la_data_in[55]
*223 la_data_in[56]
*224 la_data_in[57]
*225 la_data_in[58]
*226 la_data_in[59]
*227 la_data_in[5]
*228 la_data_in[60]
*229 la_data_in[61]
*230 la_data_in[62]
*231 la_data_in[63]
*232 la_data_in[64]
*233 la_data_in[65]
*234 la_data_in[66]
*235 la_data_in[67]
*236 la_data_in[68]
*237 la_data_in[69]
*238 la_data_in[6]
*239 la_data_in[70]
*240 la_data_in[71]
*241 la_data_in[72]
*242 la_data_in[73]
*243 la_data_in[74]
*244 la_data_in[75]
*245 la_data_in[76]
*246 la_data_in[77]
*247 la_data_in[78]
*248 la_data_in[79]
*249 la_data_in[7]
*250 la_data_in[80]
*251 la_data_in[81]
*252 la_data_in[82]
*253 la_data_in[83]
*254 la_data_in[84]
*255 la_data_in[85]
*256 la_data_in[86]
*257 la_data_in[87]
*258 la_data_in[88]
*259 la_data_in[89]
*260 la_data_in[8]
*261 la_data_in[90]
*262 la_data_in[91]
*263 la_data_in[92]
*264 la_data_in[93]
*265 la_data_in[94]
*266 la_data_in[95]
*267 la_data_in[96]
*268 la_data_in[97]
*269 la_data_in[98]
*270 la_data_in[99]
*271 la_data_in[9]
*272 la_data_out[0]
*273 la_data_out[100]
*274 la_data_out[101]
*275 la_data_out[102]
*276 la_data_out[103]
*277 la_data_out[104]
*278 la_data_out[105]
*279 la_data_out[106]
*280 la_data_out[107]
*281 la_data_out[108]
*282 la_data_out[109]
*283 la_data_out[10]
*284 la_data_out[110]
*285 la_data_out[111]
*286 la_data_out[112]
*287 la_data_out[113]
*288 la_data_out[114]
*289 la_data_out[115]
*290 la_data_out[116]
*291 la_data_out[117]
*292 la_data_out[118]
*293 la_data_out[119]
*294 la_data_out[11]
*295 la_data_out[120]
*296 la_data_out[121]
*297 la_data_out[122]
*298 la_data_out[123]
*299 la_data_out[124]
*300 la_data_out[125]
*301 la_data_out[126]
*302 la_data_out[127]
*303 la_data_out[12]
*304 la_data_out[13]
*305 la_data_out[14]
*306 la_data_out[15]
*307 la_data_out[16]
*308 la_data_out[17]
*309 la_data_out[18]
*310 la_data_out[19]
*311 la_data_out[1]
*312 la_data_out[20]
*313 la_data_out[21]
*314 la_data_out[22]
*315 la_data_out[23]
*316 la_data_out[24]
*317 la_data_out[25]
*318 la_data_out[26]
*319 la_data_out[27]
*320 la_data_out[28]
*321 la_data_out[29]
*322 la_data_out[2]
*323 la_data_out[30]
*324 la_data_out[31]
*325 la_data_out[32]
*326 la_data_out[33]
*327 la_data_out[34]
*328 la_data_out[35]
*329 la_data_out[36]
*330 la_data_out[37]
*331 la_data_out[38]
*332 la_data_out[39]
*333 la_data_out[3]
*334 la_data_out[40]
*335 la_data_out[41]
*336 la_data_out[42]
*337 la_data_out[43]
*338 la_data_out[44]
*339 la_data_out[45]
*340 la_data_out[46]
*341 la_data_out[47]
*342 la_data_out[48]
*343 la_data_out[49]
*344 la_data_out[4]
*345 la_data_out[50]
*346 la_data_out[51]
*347 la_data_out[52]
*348 la_data_out[53]
*349 la_data_out[54]
*350 la_data_out[55]
*351 la_data_out[56]
*352 la_data_out[57]
*353 la_data_out[58]
*354 la_data_out[59]
*355 la_data_out[5]
*356 la_data_out[60]
*357 la_data_out[61]
*358 la_data_out[62]
*359 la_data_out[63]
*360 la_data_out[64]
*361 la_data_out[65]
*362 la_data_out[66]
*363 la_data_out[67]
*364 la_data_out[68]
*365 la_data_out[69]
*366 la_data_out[6]
*367 la_data_out[70]
*368 la_data_out[71]
*369 la_data_out[72]
*370 la_data_out[73]
*371 la_data_out[74]
*372 la_data_out[75]
*373 la_data_out[76]
*374 la_data_out[77]
*375 la_data_out[78]
*376 la_data_out[79]
*377 la_data_out[7]
*378 la_data_out[80]
*379 la_data_out[81]
*380 la_data_out[82]
*381 la_data_out[83]
*382 la_data_out[84]
*383 la_data_out[85]
*384 la_data_out[86]
*385 la_data_out[87]
*386 la_data_out[88]
*387 la_data_out[89]
*388 la_data_out[8]
*389 la_data_out[90]
*390 la_data_out[91]
*391 la_data_out[92]
*392 la_data_out[93]
*393 la_data_out[94]
*394 la_data_out[95]
*395 la_data_out[96]
*396 la_data_out[97]
*397 la_data_out[98]
*398 la_data_out[99]
*399 la_data_out[9]
*400 la_oenb[0]
*401 la_oenb[100]
*402 la_oenb[101]
*403 la_oenb[102]
*404 la_oenb[103]
*405 la_oenb[104]
*406 la_oenb[105]
*407 la_oenb[106]
*408 la_oenb[107]
*409 la_oenb[108]
*410 la_oenb[109]
*411 la_oenb[10]
*412 la_oenb[110]
*413 la_oenb[111]
*414 la_oenb[112]
*415 la_oenb[113]
*416 la_oenb[114]
*417 la_oenb[115]
*418 la_oenb[116]
*419 la_oenb[117]
*420 la_oenb[118]
*421 la_oenb[119]
*422 la_oenb[11]
*423 la_oenb[120]
*424 la_oenb[121]
*425 la_oenb[122]
*426 la_oenb[123]
*427 la_oenb[124]
*428 la_oenb[125]
*429 la_oenb[126]
*430 la_oenb[127]
*431 la_oenb[12]
*432 la_oenb[13]
*433 la_oenb[14]
*434 la_oenb[15]
*435 la_oenb[16]
*436 la_oenb[17]
*437 la_oenb[18]
*438 la_oenb[19]
*439 la_oenb[1]
*440 la_oenb[20]
*441 la_oenb[21]
*442 la_oenb[22]
*443 la_oenb[23]
*444 la_oenb[24]
*445 la_oenb[25]
*446 la_oenb[26]
*447 la_oenb[27]
*448 la_oenb[28]
*449 la_oenb[29]
*450 la_oenb[2]
*451 la_oenb[30]
*452 la_oenb[31]
*453 la_oenb[32]
*454 la_oenb[33]
*455 la_oenb[34]
*456 la_oenb[35]
*457 la_oenb[36]
*458 la_oenb[37]
*459 la_oenb[38]
*460 la_oenb[39]
*461 la_oenb[3]
*462 la_oenb[40]
*463 la_oenb[41]
*464 la_oenb[42]
*465 la_oenb[43]
*466 la_oenb[44]
*467 la_oenb[45]
*468 la_oenb[46]
*469 la_oenb[47]
*470 la_oenb[48]
*471 la_oenb[49]
*472 la_oenb[4]
*473 la_oenb[50]
*474 la_oenb[51]
*475 la_oenb[52]
*476 la_oenb[53]
*477 la_oenb[54]
*478 la_oenb[55]
*479 la_oenb[56]
*480 la_oenb[57]
*481 la_oenb[58]
*482 la_oenb[59]
*483 la_oenb[5]
*484 la_oenb[60]
*485 la_oenb[61]
*486 la_oenb[62]
*487 la_oenb[63]
*488 la_oenb[64]
*489 la_oenb[65]
*490 la_oenb[66]
*491 la_oenb[67]
*492 la_oenb[68]
*493 la_oenb[69]
*494 la_oenb[6]
*495 la_oenb[70]
*496 la_oenb[71]
*497 la_oenb[72]
*498 la_oenb[73]
*499 la_oenb[74]
*500 la_oenb[75]
*501 la_oenb[76]
*502 la_oenb[77]
*503 la_oenb[78]
*504 la_oenb[79]
*505 la_oenb[7]
*506 la_oenb[80]
*507 la_oenb[81]
*508 la_oenb[82]
*509 la_oenb[83]
*510 la_oenb[84]
*511 la_oenb[85]
*512 la_oenb[86]
*513 la_oenb[87]
*514 la_oenb[88]
*515 la_oenb[89]
*516 la_oenb[8]
*517 la_oenb[90]
*518 la_oenb[91]
*519 la_oenb[92]
*520 la_oenb[93]
*521 la_oenb[94]
*522 la_oenb[95]
*523 la_oenb[96]
*524 la_oenb[97]
*525 la_oenb[98]
*526 la_oenb[99]
*527 la_oenb[9]
*528 user_clock2
*529 user_irq[0]
*530 user_irq[1]
*531 user_irq[2]
*540 wb_clk_i
*541 wb_rst_i
*542 wbs_ack_o
*543 wbs_adr_i[0]
*544 wbs_adr_i[10]
*545 wbs_adr_i[11]
*546 wbs_adr_i[12]
*547 wbs_adr_i[13]
*548 wbs_adr_i[14]
*549 wbs_adr_i[15]
*550 wbs_adr_i[16]
*551 wbs_adr_i[17]
*552 wbs_adr_i[18]
*553 wbs_adr_i[19]
*554 wbs_adr_i[1]
*555 wbs_adr_i[20]
*556 wbs_adr_i[21]
*557 wbs_adr_i[22]
*558 wbs_adr_i[23]
*559 wbs_adr_i[24]
*560 wbs_adr_i[25]
*561 wbs_adr_i[26]
*562 wbs_adr_i[27]
*563 wbs_adr_i[28]
*564 wbs_adr_i[29]
*565 wbs_adr_i[2]
*566 wbs_adr_i[30]
*567 wbs_adr_i[31]
*568 wbs_adr_i[3]
*569 wbs_adr_i[4]
*570 wbs_adr_i[5]
*571 wbs_adr_i[6]
*572 wbs_adr_i[7]
*573 wbs_adr_i[8]
*574 wbs_adr_i[9]
*575 wbs_cyc_i
*576 wbs_dat_i[0]
*577 wbs_dat_i[10]
*578 wbs_dat_i[11]
*579 wbs_dat_i[12]
*580 wbs_dat_i[13]
*581 wbs_dat_i[14]
*582 wbs_dat_i[15]
*583 wbs_dat_i[16]
*584 wbs_dat_i[17]
*585 wbs_dat_i[18]
*586 wbs_dat_i[19]
*587 wbs_dat_i[1]
*588 wbs_dat_i[20]
*589 wbs_dat_i[21]
*590 wbs_dat_i[22]
*591 wbs_dat_i[23]
*592 wbs_dat_i[24]
*593 wbs_dat_i[25]
*594 wbs_dat_i[26]
*595 wbs_dat_i[27]
*596 wbs_dat_i[28]
*597 wbs_dat_i[29]
*598 wbs_dat_i[2]
*599 wbs_dat_i[30]
*600 wbs_dat_i[31]
*601 wbs_dat_i[3]
*602 wbs_dat_i[4]
*603 wbs_dat_i[5]
*604 wbs_dat_i[6]
*605 wbs_dat_i[7]
*606 wbs_dat_i[8]
*607 wbs_dat_i[9]
*608 wbs_dat_o[0]
*609 wbs_dat_o[10]
*610 wbs_dat_o[11]
*611 wbs_dat_o[12]
*612 wbs_dat_o[13]
*613 wbs_dat_o[14]
*614 wbs_dat_o[15]
*615 wbs_dat_o[16]
*616 wbs_dat_o[17]
*617 wbs_dat_o[18]
*618 wbs_dat_o[19]
*619 wbs_dat_o[1]
*620 wbs_dat_o[20]
*621 wbs_dat_o[21]
*622 wbs_dat_o[22]
*623 wbs_dat_o[23]
*624 wbs_dat_o[24]
*625 wbs_dat_o[25]
*626 wbs_dat_o[26]
*627 wbs_dat_o[27]
*628 wbs_dat_o[28]
*629 wbs_dat_o[29]
*630 wbs_dat_o[2]
*631 wbs_dat_o[30]
*632 wbs_dat_o[31]
*633 wbs_dat_o[3]
*634 wbs_dat_o[4]
*635 wbs_dat_o[5]
*636 wbs_dat_o[6]
*637 wbs_dat_o[7]
*638 wbs_dat_o[8]
*639 wbs_dat_o[9]
*640 wbs_sel_i[0]
*641 wbs_sel_i[1]
*642 wbs_sel_i[2]
*643 wbs_sel_i[3]
*644 wbs_stb_i
*645 wbs_we_i
*646 caravel_irq\[3\]
*647 caravel_uart_rx
*648 caravel_uart_tx
*649 caravel_wb_ack_i
*650 caravel_wb_adr_o\[0\]
*651 caravel_wb_adr_o\[10\]
*652 caravel_wb_adr_o\[11\]
*653 caravel_wb_adr_o\[12\]
*654 caravel_wb_adr_o\[13\]
*655 caravel_wb_adr_o\[14\]
*656 caravel_wb_adr_o\[15\]
*657 caravel_wb_adr_o\[16\]
*658 caravel_wb_adr_o\[17\]
*659 caravel_wb_adr_o\[18\]
*660 caravel_wb_adr_o\[19\]
*661 caravel_wb_adr_o\[1\]
*662 caravel_wb_adr_o\[20\]
*663 caravel_wb_adr_o\[21\]
*664 caravel_wb_adr_o\[22\]
*665 caravel_wb_adr_o\[23\]
*666 caravel_wb_adr_o\[24\]
*667 caravel_wb_adr_o\[25\]
*668 caravel_wb_adr_o\[26\]
*669 caravel_wb_adr_o\[27\]
*670 caravel_wb_adr_o\[2\]
*671 caravel_wb_adr_o\[3\]
*672 caravel_wb_adr_o\[4\]
*673 caravel_wb_adr_o\[5\]
*674 caravel_wb_adr_o\[6\]
*675 caravel_wb_adr_o\[7\]
*676 caravel_wb_adr_o\[8\]
*677 caravel_wb_adr_o\[9\]
*678 caravel_wb_cyc_o
*679 caravel_wb_data_i\[0\]
*680 caravel_wb_data_i\[10\]
*681 caravel_wb_data_i\[11\]
*682 caravel_wb_data_i\[12\]
*683 caravel_wb_data_i\[13\]
*684 caravel_wb_data_i\[14\]
*685 caravel_wb_data_i\[15\]
*686 caravel_wb_data_i\[16\]
*687 caravel_wb_data_i\[17\]
*688 caravel_wb_data_i\[18\]
*689 caravel_wb_data_i\[19\]
*690 caravel_wb_data_i\[1\]
*691 caravel_wb_data_i\[20\]
*692 caravel_wb_data_i\[21\]
*693 caravel_wb_data_i\[22\]
*694 caravel_wb_data_i\[23\]
*695 caravel_wb_data_i\[24\]
*696 caravel_wb_data_i\[25\]
*697 caravel_wb_data_i\[26\]
*698 caravel_wb_data_i\[27\]
*699 caravel_wb_data_i\[28\]
*700 caravel_wb_data_i\[29\]
*701 caravel_wb_data_i\[2\]
*702 caravel_wb_data_i\[30\]
*703 caravel_wb_data_i\[31\]
*704 caravel_wb_data_i\[3\]
*705 caravel_wb_data_i\[4\]
*706 caravel_wb_data_i\[5\]
*707 caravel_wb_data_i\[6\]
*708 caravel_wb_data_i\[7\]
*709 caravel_wb_data_i\[8\]
*710 caravel_wb_data_i\[9\]
*711 caravel_wb_data_o\[0\]
*712 caravel_wb_data_o\[10\]
*713 caravel_wb_data_o\[11\]
*714 caravel_wb_data_o\[12\]
*715 caravel_wb_data_o\[13\]
*716 caravel_wb_data_o\[14\]
*717 caravel_wb_data_o\[15\]
*718 caravel_wb_data_o\[16\]
*719 caravel_wb_data_o\[17\]
*720 caravel_wb_data_o\[18\]
*721 caravel_wb_data_o\[19\]
*722 caravel_wb_data_o\[1\]
*723 caravel_wb_data_o\[20\]
*724 caravel_wb_data_o\[21\]
*725 caravel_wb_data_o\[22\]
*726 caravel_wb_data_o\[23\]
*727 caravel_wb_data_o\[24\]
*728 caravel_wb_data_o\[25\]
*729 caravel_wb_data_o\[26\]
*730 caravel_wb_data_o\[27\]
*731 caravel_wb_data_o\[28\]
*732 caravel_wb_data_o\[29\]
*733 caravel_wb_data_o\[2\]
*734 caravel_wb_data_o\[30\]
*735 caravel_wb_data_o\[31\]
*736 caravel_wb_data_o\[3\]
*737 caravel_wb_data_o\[4\]
*738 caravel_wb_data_o\[5\]
*739 caravel_wb_data_o\[6\]
*740 caravel_wb_data_o\[7\]
*741 caravel_wb_data_o\[8\]
*742 caravel_wb_data_o\[9\]
*743 caravel_wb_error_i
*744 caravel_wb_sel_o\[0\]
*745 caravel_wb_sel_o\[1\]
*746 caravel_wb_sel_o\[2\]
*747 caravel_wb_sel_o\[3\]
*748 caravel_wb_stall_i
*749 caravel_wb_stb_o
*750 caravel_wb_we_o
*751 core0Index\[0\]
*752 core0Index\[1\]
*753 core0Index\[2\]
*754 core0Index\[3\]
*755 core0Index\[4\]
*756 core0Index\[5\]
*757 core0Index\[6\]
*758 core0Index\[7\]
*759 core1Index\[0\]
*760 core1Index\[1\]
*761 core1Index\[2\]
*762 core1Index\[3\]
*763 core1Index\[4\]
*764 core1Index\[5\]
*765 core1Index\[6\]
*766 core1Index\[7\]
*767 experiarSoC/core0Memory_wb_ack_o
*768 experiarSoC/core0Memory_wb_adr_i\[0\]
*769 experiarSoC/core0Memory_wb_adr_i\[10\]
*770 experiarSoC/core0Memory_wb_adr_i\[11\]
*771 experiarSoC/core0Memory_wb_adr_i\[12\]
*772 experiarSoC/core0Memory_wb_adr_i\[13\]
*773 experiarSoC/core0Memory_wb_adr_i\[14\]
*774 experiarSoC/core0Memory_wb_adr_i\[15\]
*775 experiarSoC/core0Memory_wb_adr_i\[16\]
*776 experiarSoC/core0Memory_wb_adr_i\[17\]
*777 experiarSoC/core0Memory_wb_adr_i\[18\]
*778 experiarSoC/core0Memory_wb_adr_i\[19\]
*779 experiarSoC/core0Memory_wb_adr_i\[1\]
*780 experiarSoC/core0Memory_wb_adr_i\[20\]
*781 experiarSoC/core0Memory_wb_adr_i\[21\]
*782 experiarSoC/core0Memory_wb_adr_i\[22\]
*783 experiarSoC/core0Memory_wb_adr_i\[23\]
*784 experiarSoC/core0Memory_wb_adr_i\[2\]
*785 experiarSoC/core0Memory_wb_adr_i\[3\]
*786 experiarSoC/core0Memory_wb_adr_i\[4\]
*787 experiarSoC/core0Memory_wb_adr_i\[5\]
*788 experiarSoC/core0Memory_wb_adr_i\[6\]
*789 experiarSoC/core0Memory_wb_adr_i\[7\]
*790 experiarSoC/core0Memory_wb_adr_i\[8\]
*791 experiarSoC/core0Memory_wb_adr_i\[9\]
*792 experiarSoC/core0Memory_wb_cyc_i
*793 experiarSoC/core0Memory_wb_data_i\[0\]
*794 experiarSoC/core0Memory_wb_data_i\[10\]
*795 experiarSoC/core0Memory_wb_data_i\[11\]
*796 experiarSoC/core0Memory_wb_data_i\[12\]
*797 experiarSoC/core0Memory_wb_data_i\[13\]
*798 experiarSoC/core0Memory_wb_data_i\[14\]
*799 experiarSoC/core0Memory_wb_data_i\[15\]
*800 experiarSoC/core0Memory_wb_data_i\[16\]
*801 experiarSoC/core0Memory_wb_data_i\[17\]
*802 experiarSoC/core0Memory_wb_data_i\[18\]
*803 experiarSoC/core0Memory_wb_data_i\[19\]
*804 experiarSoC/core0Memory_wb_data_i\[1\]
*805 experiarSoC/core0Memory_wb_data_i\[20\]
*806 experiarSoC/core0Memory_wb_data_i\[21\]
*807 experiarSoC/core0Memory_wb_data_i\[22\]
*808 experiarSoC/core0Memory_wb_data_i\[23\]
*809 experiarSoC/core0Memory_wb_data_i\[24\]
*810 experiarSoC/core0Memory_wb_data_i\[25\]
*811 experiarSoC/core0Memory_wb_data_i\[26\]
*812 experiarSoC/core0Memory_wb_data_i\[27\]
*813 experiarSoC/core0Memory_wb_data_i\[28\]
*814 experiarSoC/core0Memory_wb_data_i\[29\]
*815 experiarSoC/core0Memory_wb_data_i\[2\]
*816 experiarSoC/core0Memory_wb_data_i\[30\]
*817 experiarSoC/core0Memory_wb_data_i\[31\]
*818 experiarSoC/core0Memory_wb_data_i\[3\]
*819 experiarSoC/core0Memory_wb_data_i\[4\]
*820 experiarSoC/core0Memory_wb_data_i\[5\]
*821 experiarSoC/core0Memory_wb_data_i\[6\]
*822 experiarSoC/core0Memory_wb_data_i\[7\]
*823 experiarSoC/core0Memory_wb_data_i\[8\]
*824 experiarSoC/core0Memory_wb_data_i\[9\]
*825 experiarSoC/core0Memory_wb_data_o\[0\]
*826 experiarSoC/core0Memory_wb_data_o\[10\]
*827 experiarSoC/core0Memory_wb_data_o\[11\]
*828 experiarSoC/core0Memory_wb_data_o\[12\]
*829 experiarSoC/core0Memory_wb_data_o\[13\]
*830 experiarSoC/core0Memory_wb_data_o\[14\]
*831 experiarSoC/core0Memory_wb_data_o\[15\]
*832 experiarSoC/core0Memory_wb_data_o\[16\]
*833 experiarSoC/core0Memory_wb_data_o\[17\]
*834 experiarSoC/core0Memory_wb_data_o\[18\]
*835 experiarSoC/core0Memory_wb_data_o\[19\]
*836 experiarSoC/core0Memory_wb_data_o\[1\]
*837 experiarSoC/core0Memory_wb_data_o\[20\]
*838 experiarSoC/core0Memory_wb_data_o\[21\]
*839 experiarSoC/core0Memory_wb_data_o\[22\]
*840 experiarSoC/core0Memory_wb_data_o\[23\]
*841 experiarSoC/core0Memory_wb_data_o\[24\]
*842 experiarSoC/core0Memory_wb_data_o\[25\]
*843 experiarSoC/core0Memory_wb_data_o\[26\]
*844 experiarSoC/core0Memory_wb_data_o\[27\]
*845 experiarSoC/core0Memory_wb_data_o\[28\]
*846 experiarSoC/core0Memory_wb_data_o\[29\]
*847 experiarSoC/core0Memory_wb_data_o\[2\]
*848 experiarSoC/core0Memory_wb_data_o\[30\]
*849 experiarSoC/core0Memory_wb_data_o\[31\]
*850 experiarSoC/core0Memory_wb_data_o\[3\]
*851 experiarSoC/core0Memory_wb_data_o\[4\]
*852 experiarSoC/core0Memory_wb_data_o\[5\]
*853 experiarSoC/core0Memory_wb_data_o\[6\]
*854 experiarSoC/core0Memory_wb_data_o\[7\]
*855 experiarSoC/core0Memory_wb_data_o\[8\]
*856 experiarSoC/core0Memory_wb_data_o\[9\]
*857 experiarSoC/core0Memory_wb_error_o
*858 experiarSoC/core0Memory_wb_sel_i\[0\]
*859 experiarSoC/core0Memory_wb_sel_i\[1\]
*860 experiarSoC/core0Memory_wb_sel_i\[2\]
*861 experiarSoC/core0Memory_wb_sel_i\[3\]
*862 experiarSoC/core0Memory_wb_stall_o
*863 experiarSoC/core0Memory_wb_stb_i
*864 experiarSoC/core0Memory_wb_we_i
*865 experiarSoC/core0SRAM0_dout0\[0\]
*866 experiarSoC/core0SRAM0_dout0\[10\]
*867 experiarSoC/core0SRAM0_dout0\[11\]
*868 experiarSoC/core0SRAM0_dout0\[12\]
*869 experiarSoC/core0SRAM0_dout0\[13\]
*870 experiarSoC/core0SRAM0_dout0\[14\]
*871 experiarSoC/core0SRAM0_dout0\[15\]
*872 experiarSoC/core0SRAM0_dout0\[16\]
*873 experiarSoC/core0SRAM0_dout0\[17\]
*874 experiarSoC/core0SRAM0_dout0\[18\]
*875 experiarSoC/core0SRAM0_dout0\[19\]
*876 experiarSoC/core0SRAM0_dout0\[1\]
*877 experiarSoC/core0SRAM0_dout0\[20\]
*878 experiarSoC/core0SRAM0_dout0\[21\]
*879 experiarSoC/core0SRAM0_dout0\[22\]
*880 experiarSoC/core0SRAM0_dout0\[23\]
*881 experiarSoC/core0SRAM0_dout0\[24\]
*882 experiarSoC/core0SRAM0_dout0\[25\]
*883 experiarSoC/core0SRAM0_dout0\[26\]
*884 experiarSoC/core0SRAM0_dout0\[27\]
*885 experiarSoC/core0SRAM0_dout0\[28\]
*886 experiarSoC/core0SRAM0_dout0\[29\]
*887 experiarSoC/core0SRAM0_dout0\[2\]
*888 experiarSoC/core0SRAM0_dout0\[30\]
*889 experiarSoC/core0SRAM0_dout0\[31\]
*890 experiarSoC/core0SRAM0_dout0\[3\]
*891 experiarSoC/core0SRAM0_dout0\[4\]
*892 experiarSoC/core0SRAM0_dout0\[5\]
*893 experiarSoC/core0SRAM0_dout0\[6\]
*894 experiarSoC/core0SRAM0_dout0\[7\]
*895 experiarSoC/core0SRAM0_dout0\[8\]
*896 experiarSoC/core0SRAM0_dout0\[9\]
*897 experiarSoC/core0SRAM0_dout1\[0\]
*898 experiarSoC/core0SRAM0_dout1\[10\]
*899 experiarSoC/core0SRAM0_dout1\[11\]
*900 experiarSoC/core0SRAM0_dout1\[12\]
*901 experiarSoC/core0SRAM0_dout1\[13\]
*902 experiarSoC/core0SRAM0_dout1\[14\]
*903 experiarSoC/core0SRAM0_dout1\[15\]
*904 experiarSoC/core0SRAM0_dout1\[16\]
*905 experiarSoC/core0SRAM0_dout1\[17\]
*906 experiarSoC/core0SRAM0_dout1\[18\]
*907 experiarSoC/core0SRAM0_dout1\[19\]
*908 experiarSoC/core0SRAM0_dout1\[1\]
*909 experiarSoC/core0SRAM0_dout1\[20\]
*910 experiarSoC/core0SRAM0_dout1\[21\]
*911 experiarSoC/core0SRAM0_dout1\[22\]
*912 experiarSoC/core0SRAM0_dout1\[23\]
*913 experiarSoC/core0SRAM0_dout1\[24\]
*914 experiarSoC/core0SRAM0_dout1\[25\]
*915 experiarSoC/core0SRAM0_dout1\[26\]
*916 experiarSoC/core0SRAM0_dout1\[27\]
*917 experiarSoC/core0SRAM0_dout1\[28\]
*918 experiarSoC/core0SRAM0_dout1\[29\]
*919 experiarSoC/core0SRAM0_dout1\[2\]
*920 experiarSoC/core0SRAM0_dout1\[30\]
*921 experiarSoC/core0SRAM0_dout1\[31\]
*922 experiarSoC/core0SRAM0_dout1\[3\]
*923 experiarSoC/core0SRAM0_dout1\[4\]
*924 experiarSoC/core0SRAM0_dout1\[5\]
*925 experiarSoC/core0SRAM0_dout1\[6\]
*926 experiarSoC/core0SRAM0_dout1\[7\]
*927 experiarSoC/core0SRAM0_dout1\[8\]
*928 experiarSoC/core0SRAM0_dout1\[9\]
*929 experiarSoC/core0SRAM1_dout0\[0\]
*930 experiarSoC/core0SRAM1_dout0\[10\]
*931 experiarSoC/core0SRAM1_dout0\[11\]
*932 experiarSoC/core0SRAM1_dout0\[12\]
*933 experiarSoC/core0SRAM1_dout0\[13\]
*934 experiarSoC/core0SRAM1_dout0\[14\]
*935 experiarSoC/core0SRAM1_dout0\[15\]
*936 experiarSoC/core0SRAM1_dout0\[16\]
*937 experiarSoC/core0SRAM1_dout0\[17\]
*938 experiarSoC/core0SRAM1_dout0\[18\]
*939 experiarSoC/core0SRAM1_dout0\[19\]
*940 experiarSoC/core0SRAM1_dout0\[1\]
*941 experiarSoC/core0SRAM1_dout0\[20\]
*942 experiarSoC/core0SRAM1_dout0\[21\]
*943 experiarSoC/core0SRAM1_dout0\[22\]
*944 experiarSoC/core0SRAM1_dout0\[23\]
*945 experiarSoC/core0SRAM1_dout0\[24\]
*946 experiarSoC/core0SRAM1_dout0\[25\]
*947 experiarSoC/core0SRAM1_dout0\[26\]
*948 experiarSoC/core0SRAM1_dout0\[27\]
*949 experiarSoC/core0SRAM1_dout0\[28\]
*950 experiarSoC/core0SRAM1_dout0\[29\]
*951 experiarSoC/core0SRAM1_dout0\[2\]
*952 experiarSoC/core0SRAM1_dout0\[30\]
*953 experiarSoC/core0SRAM1_dout0\[31\]
*954 experiarSoC/core0SRAM1_dout0\[3\]
*955 experiarSoC/core0SRAM1_dout0\[4\]
*956 experiarSoC/core0SRAM1_dout0\[5\]
*957 experiarSoC/core0SRAM1_dout0\[6\]
*958 experiarSoC/core0SRAM1_dout0\[7\]
*959 experiarSoC/core0SRAM1_dout0\[8\]
*960 experiarSoC/core0SRAM1_dout0\[9\]
*961 experiarSoC/core0SRAM1_dout1\[0\]
*962 experiarSoC/core0SRAM1_dout1\[10\]
*963 experiarSoC/core0SRAM1_dout1\[11\]
*964 experiarSoC/core0SRAM1_dout1\[12\]
*965 experiarSoC/core0SRAM1_dout1\[13\]
*966 experiarSoC/core0SRAM1_dout1\[14\]
*967 experiarSoC/core0SRAM1_dout1\[15\]
*968 experiarSoC/core0SRAM1_dout1\[16\]
*969 experiarSoC/core0SRAM1_dout1\[17\]
*970 experiarSoC/core0SRAM1_dout1\[18\]
*971 experiarSoC/core0SRAM1_dout1\[19\]
*972 experiarSoC/core0SRAM1_dout1\[1\]
*973 experiarSoC/core0SRAM1_dout1\[20\]
*974 experiarSoC/core0SRAM1_dout1\[21\]
*975 experiarSoC/core0SRAM1_dout1\[22\]
*976 experiarSoC/core0SRAM1_dout1\[23\]
*977 experiarSoC/core0SRAM1_dout1\[24\]
*978 experiarSoC/core0SRAM1_dout1\[25\]
*979 experiarSoC/core0SRAM1_dout1\[26\]
*980 experiarSoC/core0SRAM1_dout1\[27\]
*981 experiarSoC/core0SRAM1_dout1\[28\]
*982 experiarSoC/core0SRAM1_dout1\[29\]
*983 experiarSoC/core0SRAM1_dout1\[2\]
*984 experiarSoC/core0SRAM1_dout1\[30\]
*985 experiarSoC/core0SRAM1_dout1\[31\]
*986 experiarSoC/core0SRAM1_dout1\[3\]
*987 experiarSoC/core0SRAM1_dout1\[4\]
*988 experiarSoC/core0SRAM1_dout1\[5\]
*989 experiarSoC/core0SRAM1_dout1\[6\]
*990 experiarSoC/core0SRAM1_dout1\[7\]
*991 experiarSoC/core0SRAM1_dout1\[8\]
*992 experiarSoC/core0SRAM1_dout1\[9\]
*993 experiarSoC/core0SRAM_addr0\[0\]
*994 experiarSoC/core0SRAM_addr0\[1\]
*995 experiarSoC/core0SRAM_addr0\[2\]
*996 experiarSoC/core0SRAM_addr0\[3\]
*997 experiarSoC/core0SRAM_addr0\[4\]
*998 experiarSoC/core0SRAM_addr0\[5\]
*999 experiarSoC/core0SRAM_addr0\[6\]
*1000 experiarSoC/core0SRAM_addr0\[7\]
*1001 experiarSoC/core0SRAM_addr0\[8\]
*1002 experiarSoC/core0SRAM_addr1\[0\]
*1003 experiarSoC/core0SRAM_addr1\[1\]
*1004 experiarSoC/core0SRAM_addr1\[2\]
*1005 experiarSoC/core0SRAM_addr1\[3\]
*1006 experiarSoC/core0SRAM_addr1\[4\]
*1007 experiarSoC/core0SRAM_addr1\[5\]
*1008 experiarSoC/core0SRAM_addr1\[6\]
*1009 experiarSoC/core0SRAM_addr1\[7\]
*1010 experiarSoC/core0SRAM_addr1\[8\]
*1011 experiarSoC/core0SRAM_clk0
*1012 experiarSoC/core0SRAM_clk1
*1013 experiarSoC/core0SRAM_csb0\[0\]
*1014 experiarSoC/core0SRAM_csb0\[1\]
*1015 experiarSoC/core0SRAM_csb1\[0\]
*1016 experiarSoC/core0SRAM_csb1\[1\]
*1017 experiarSoC/core0SRAM_din0\[0\]
*1018 experiarSoC/core0SRAM_din0\[10\]
*1019 experiarSoC/core0SRAM_din0\[11\]
*1020 experiarSoC/core0SRAM_din0\[12\]
*1021 experiarSoC/core0SRAM_din0\[13\]
*1022 experiarSoC/core0SRAM_din0\[14\]
*1023 experiarSoC/core0SRAM_din0\[15\]
*1024 experiarSoC/core0SRAM_din0\[16\]
*1025 experiarSoC/core0SRAM_din0\[17\]
*1026 experiarSoC/core0SRAM_din0\[18\]
*1027 experiarSoC/core0SRAM_din0\[19\]
*1028 experiarSoC/core0SRAM_din0\[1\]
*1029 experiarSoC/core0SRAM_din0\[20\]
*1030 experiarSoC/core0SRAM_din0\[21\]
*1031 experiarSoC/core0SRAM_din0\[22\]
*1032 experiarSoC/core0SRAM_din0\[23\]
*1033 experiarSoC/core0SRAM_din0\[24\]
*1034 experiarSoC/core0SRAM_din0\[25\]
*1035 experiarSoC/core0SRAM_din0\[26\]
*1036 experiarSoC/core0SRAM_din0\[27\]
*1037 experiarSoC/core0SRAM_din0\[28\]
*1038 experiarSoC/core0SRAM_din0\[29\]
*1039 experiarSoC/core0SRAM_din0\[2\]
*1040 experiarSoC/core0SRAM_din0\[30\]
*1041 experiarSoC/core0SRAM_din0\[31\]
*1042 experiarSoC/core0SRAM_din0\[3\]
*1043 experiarSoC/core0SRAM_din0\[4\]
*1044 experiarSoC/core0SRAM_din0\[5\]
*1045 experiarSoC/core0SRAM_din0\[6\]
*1046 experiarSoC/core0SRAM_din0\[7\]
*1047 experiarSoC/core0SRAM_din0\[8\]
*1048 experiarSoC/core0SRAM_din0\[9\]
*1049 experiarSoC/core0SRAM_web0
*1050 experiarSoC/core0SRAM_wmask0\[0\]
*1051 experiarSoC/core0SRAM_wmask0\[1\]
*1052 experiarSoC/core0SRAM_wmask0\[2\]
*1053 experiarSoC/core0SRAM_wmask0\[3\]
*1054 experiarSoC/core0_tdi
*1055 experiarSoC/core0_tdo
*1056 experiarSoC/core0_wb_ack_i
*1057 experiarSoC/core0_wb_adr_o\[0\]
*1058 experiarSoC/core0_wb_adr_o\[10\]
*1059 experiarSoC/core0_wb_adr_o\[11\]
*1060 experiarSoC/core0_wb_adr_o\[12\]
*1061 experiarSoC/core0_wb_adr_o\[13\]
*1062 experiarSoC/core0_wb_adr_o\[14\]
*1063 experiarSoC/core0_wb_adr_o\[15\]
*1064 experiarSoC/core0_wb_adr_o\[16\]
*1065 experiarSoC/core0_wb_adr_o\[17\]
*1066 experiarSoC/core0_wb_adr_o\[18\]
*1067 experiarSoC/core0_wb_adr_o\[19\]
*1068 experiarSoC/core0_wb_adr_o\[1\]
*1069 experiarSoC/core0_wb_adr_o\[20\]
*1070 experiarSoC/core0_wb_adr_o\[21\]
*1071 experiarSoC/core0_wb_adr_o\[22\]
*1072 experiarSoC/core0_wb_adr_o\[23\]
*1073 experiarSoC/core0_wb_adr_o\[24\]
*1074 experiarSoC/core0_wb_adr_o\[25\]
*1075 experiarSoC/core0_wb_adr_o\[26\]
*1076 experiarSoC/core0_wb_adr_o\[27\]
*1077 experiarSoC/core0_wb_adr_o\[2\]
*1078 experiarSoC/core0_wb_adr_o\[3\]
*1079 experiarSoC/core0_wb_adr_o\[4\]
*1080 experiarSoC/core0_wb_adr_o\[5\]
*1081 experiarSoC/core0_wb_adr_o\[6\]
*1082 experiarSoC/core0_wb_adr_o\[7\]
*1083 experiarSoC/core0_wb_adr_o\[8\]
*1084 experiarSoC/core0_wb_adr_o\[9\]
*1085 experiarSoC/core0_wb_cyc_o
*1086 experiarSoC/core0_wb_data_i\[0\]
*1087 experiarSoC/core0_wb_data_i\[10\]
*1088 experiarSoC/core0_wb_data_i\[11\]
*1089 experiarSoC/core0_wb_data_i\[12\]
*1090 experiarSoC/core0_wb_data_i\[13\]
*1091 experiarSoC/core0_wb_data_i\[14\]
*1092 experiarSoC/core0_wb_data_i\[15\]
*1093 experiarSoC/core0_wb_data_i\[16\]
*1094 experiarSoC/core0_wb_data_i\[17\]
*1095 experiarSoC/core0_wb_data_i\[18\]
*1096 experiarSoC/core0_wb_data_i\[19\]
*1097 experiarSoC/core0_wb_data_i\[1\]
*1098 experiarSoC/core0_wb_data_i\[20\]
*1099 experiarSoC/core0_wb_data_i\[21\]
*1100 experiarSoC/core0_wb_data_i\[22\]
*1101 experiarSoC/core0_wb_data_i\[23\]
*1102 experiarSoC/core0_wb_data_i\[24\]
*1103 experiarSoC/core0_wb_data_i\[25\]
*1104 experiarSoC/core0_wb_data_i\[26\]
*1105 experiarSoC/core0_wb_data_i\[27\]
*1106 experiarSoC/core0_wb_data_i\[28\]
*1107 experiarSoC/core0_wb_data_i\[29\]
*1108 experiarSoC/core0_wb_data_i\[2\]
*1109 experiarSoC/core0_wb_data_i\[30\]
*1110 experiarSoC/core0_wb_data_i\[31\]
*1111 experiarSoC/core0_wb_data_i\[3\]
*1112 experiarSoC/core0_wb_data_i\[4\]
*1113 experiarSoC/core0_wb_data_i\[5\]
*1114 experiarSoC/core0_wb_data_i\[6\]
*1115 experiarSoC/core0_wb_data_i\[7\]
*1116 experiarSoC/core0_wb_data_i\[8\]
*1117 experiarSoC/core0_wb_data_i\[9\]
*1118 experiarSoC/core0_wb_data_o\[0\]
*1119 experiarSoC/core0_wb_data_o\[10\]
*1120 experiarSoC/core0_wb_data_o\[11\]
*1121 experiarSoC/core0_wb_data_o\[12\]
*1122 experiarSoC/core0_wb_data_o\[13\]
*1123 experiarSoC/core0_wb_data_o\[14\]
*1124 experiarSoC/core0_wb_data_o\[15\]
*1125 experiarSoC/core0_wb_data_o\[16\]
*1126 experiarSoC/core0_wb_data_o\[17\]
*1127 experiarSoC/core0_wb_data_o\[18\]
*1128 experiarSoC/core0_wb_data_o\[19\]
*1129 experiarSoC/core0_wb_data_o\[1\]
*1130 experiarSoC/core0_wb_data_o\[20\]